<NUMBER OF ZONES> 1117
<TOTAL OD FLOW> 695013
<END OF METADATA>

Origin  1
	 1 :   29;	 2 :   3;	 3 :   7;	 4 :   20;
	 5 :   3;	 6 :   7;	 7 :   5;	 10 :   3;	 12 :   1;
	 13 :   1;	 14 :   1;	 15 :   5;	 18 :   1;	 19 :   2;
	 20 :   1;	 21 :   1;	 24 :   1;	 37 :   1;	 40 :   1;
	 41 :   1;	 57 :   1;	 61 :   1;	 68 :   1;	 95 :   1;
	 103 :   2;	 104 :   1;	 105 :   5;	 106 :   2;	 110 :   4;
	 111 :   1;	 112 :   2;	 113 :   2;	 115 :   2;	 116 :   2;
	 117 :   2;	 118 :   9;	 119 :   1;	 120 :   1;	 121 :   6;
	 122 :   4;	 123 :   3;	 125 :   2;	 127 :   1;	 128 :   1;
	 129 :   1;	 130 :   1;	 133 :   1;	 137 :   1;	 140 :   4;
	 142 :   1;	 145 :   1;	 146 :   1;	 148 :   1;	 149 :   5;
	 151 :   2;	 152 :   3;	 153 :   7;	 154 :   5;	 156 :   1;
	 157 :   2;	 158 :   2;	 159 :   2;	 160 :   2;	 161 :   8;
	 162 :   3;	 163 :   4;	 164 :   1;	 165 :   2;	 166 :   1;
	 167 :   1;	 168 :   2;	 169 :   3;	 170 :   1;	 171 :   2;
	 172 :   2;	 173 :   2;	 174 :   1;	 175 :   1;	 176 :   1;
	 177 :   1;	 178 :   5;	 179 :   2;	 180 :   2;	 181 :   1;
	 182 :   1;	 183 :   7;	 184 :   1;	 186 :   1;	 187 :   3;
	 188 :   1;	 189 :   1;	 190 :   2;	 192 :   1;	 193 :   2;
	 195 :   1;	 196 :   1;	 198 :   4;	 199 :   3;	 201 :   5;
	 202 :   2;	 203 :   2;	 204 :   1;	 205 :   1;	 206 :   2;
	 209 :   1;	 213 :   1;	 214 :   3;	 215 :   2;	 217 :   2;
	 218 :   2;	 219 :   2;	 220 :   1;	 221 :   1;	 222 :   1;
	 229 :   2;	 230 :   2;	 231 :   4;	 233 :   2;	 234 :   1;
	 236 :   1;	 240 :   2;	 241 :   1;	 242 :   1;	 244 :   1;
	 246 :   1;	 247 :   1;	 248 :   1;	 249 :   1;	 250 :   1;
	 251 :   1;	 252 :   2;	 253 :   1;	 254 :   2;	 256 :   3;
	 259 :   1;	 261 :   1;	 264 :   2;	 265 :   1;	 266 :   1;
	 273 :   2;	 275 :   1;	 276 :   1;	 278 :   2;	 279 :   3;
	 280 :   1;	 281 :   1;	 285 :   1;	 288 :   1;	 296 :   1;
	 300 :   1;	 303 :   1;	 305 :   1;	 315 :   1;	 318 :   2;
	 319 :   1;	 325 :   1;	 326 :   1;	 330 :   2;	 344 :   1;
	 345 :   1;	 348 :   1;	 359 :   1;	 361 :   3;	 362 :   4;
	 363 :   1;	 366 :   1;	 372 :   1;	 376 :   2;	 377 :   1;
	 379 :   2;	 380 :   1;	 381 :   1;	 385 :   1;	 397 :   1;
	 398 :   2;	 402 :   1;	 405 :   1;	 406 :   1;	 408 :   1;
	 410 :   1;	 432 :   1;	 437 :   1;	 441 :   1;	 446 :   5;
	 448 :   1;	 452 :   1;	 453 :   1;	 454 :   1;	 455 :   1;
	 460 :   1;	 462 :   1;	 467 :   1;	 468 :   1;	 470 :   1;
	 475 :   1;	 479 :   1;	 480 :   1;	 482 :   1;	 484 :   1;
	 485 :   1;	 487 :   1;	 492 :   1;	 494 :   1;	 496 :   1;
	 499 :   4;	 508 :   1;	 567 :   1;	 568 :   1;	 569 :   4;
	 571 :   1;	 574 :   2;	 575 :   1;	 576 :   3;	 581 :   1;
	 592 :   1;	 610 :   1;	 641 :   1;	 642 :   1;	 652 :   1;
	 662 :   1;	 790 :   1;	 847 :   1;	 850 :   2;	 851 :   5;
	 852 :   2;	 853 :   6;	 854 :   30;	 855 :   1;	 858 :   2;
	 859 :   1;	 860 :   1;	 861 :   1;	 862 :   2;	 866 :   1;
	 867 :   2;	 871 :   1;	 872 :   2;	 873 :   2;	 875 :   3;
	 877 :   1;	 878 :   1;	 880 :   1;	 924 :   18;	 925 :   14;
	 926 :   11;	 927 :   2;	 928 :   1;	 929 :   10;	 930 :   1;
	 931 :   1;	 932 :   2;	 933 :   1;	 934 :   1;	 938 :   1;
	 941 :   1;	 1038 :   1;	 1039 :   1;	 1040 :   3;	 1041 :   5;
	 1042 :   8;	 1044 :   26;	 1045 :   11;	 1046 :   13;	 1047 :   25;
	 1048 :   4;	 1051 :   1;	 1054 :   5;	 1055 :   2;	 1056 :   9;
	 1058 :   2;	 1060 :   1;	 1061 :   1;	 1064 :   8;	 1065 :   7;
	 1066 :   1;	 1069 :   2;	 1070 :   1;	 1071 :   2;	 1072 :   1;
	 1075 :   2;	 1077 :   4;	 1115 :   10;	 1116 :   2;

Origin  2
	 1 :   11;	 2 :   4;	 3 :   1;	 4 :   5;
	 5 :   1;	 6 :   2;	 7 :   1;	 10 :   1;	 12 :   1;
	 14 :   1;	 15 :   2;	 17 :   1;	 19 :   1;	 40 :   1;
	 61 :   1;	 68 :   1;	 95 :   1;	 103 :   4;	 105 :   4;
	 106 :   1;	 110 :   2;	 112 :   1;	 115 :   1;	 117 :   1;
	 118 :   3;	 121 :   3;	 122 :   2;	 123 :   1;	 125 :   1;
	 133 :   1;	 140 :   3;	 145 :   1;	 149 :   3;	 152 :   2;
	 153 :   3;	 154 :   2;	 157 :   1;	 158 :   1;	 159 :   1;
	 160 :   1;	 161 :   4;	 162 :   2;	 163 :   2;	 164 :   1;
	 165 :   1;	 168 :   1;	 169 :   1;	 170 :   1;	 171 :   1;
	 172 :   1;	 173 :   1;	 174 :   1;	 175 :   1;	 177 :   1;
	 178 :   1;	 180 :   1;	 181 :   1;	 183 :   3;	 186 :   1;
	 187 :   1;	 188 :   1;	 190 :   1;	 193 :   1;	 196 :   1;
	 198 :   2;	 199 :   1;	 201 :   2;	 202 :   1;	 204 :   1;
	 205 :   1;	 206 :   1;	 213 :   1;	 214 :   1;	 215 :   1;
	 217 :   1;	 218 :   1;	 219 :   1;	 220 :   1;	 222 :   1;
	 229 :   1;	 230 :   1;	 231 :   2;	 233 :   1;	 234 :   1;
	 240 :   1;	 242 :   1;	 244 :   1;	 246 :   1;	 248 :   1;
	 250 :   1;	 252 :   1;	 254 :   1;	 256 :   1;	 264 :   1;
	 270 :   1;	 273 :   1;	 279 :   2;	 280 :   1;	 288 :   1;
	 306 :   1;	 318 :   1;	 319 :   1;	 330 :   1;	 344 :   1;
	 345 :   1;	 356 :   1;	 361 :   1;	 362 :   2;	 376 :   1;
	 377 :   1;	 379 :   1;	 380 :   1;	 381 :   1;	 398 :   1;
	 402 :   1;	 406 :   1;	 446 :   3;	 448 :   1;	 458 :   1;
	 484 :   1;	 497 :   1;	 499 :   2;	 569 :   1;	 574 :   1;
	 575 :   1;	 576 :   1;	 594 :   1;	 641 :   1;	 642 :   1;
	 850 :   1;	 851 :   2;	 852 :   3;	 853 :   10;	 854 :   13;
	 855 :   1;	 858 :   1;	 859 :   1;	 861 :   1;	 862 :   1;
	 865 :   1;	 866 :   1;	 867 :   1;	 872 :   2;	 873 :   1;
	 875 :   2;	 877 :   1;	 880 :   1;	 924 :   12;	 925 :   4;
	 926 :   4;	 927 :   1;	 928 :   1;	 929 :   3;	 930 :   1;
	 932 :   1;	 933 :   1;	 934 :   1;	 1038 :   1;	 1040 :   1;
	 1041 :   2;	 1042 :   1;	 1044 :   5;	 1045 :   2;	 1046 :   2;
	 1047 :   8;	 1048 :   2;	 1054 :   2;	 1055 :   1;	 1056 :   3;
	 1058 :   1;	 1060 :   1;	 1064 :   2;	 1065 :   2;	 1070 :   1;
	 1075 :   1;	 1077 :   2;	 1115 :   9;	 1116 :   2;

Origin  3
	 1 :   30;	 2 :   2;	 3 :   6;	 4 :   11;
	 5 :   4;	 6 :   8;	 7 :   6;	 10 :   4;	 12 :   1;
	 13 :   1;	 14 :   1;	 15 :   6;	 17 :   1;	 18 :   1;
	 19 :   2;	 20 :   1;	 21 :   1;	 23 :   1;	 24 :   1;
	 26 :   1;	 31 :   1;	 33 :   1;	 37 :   1;	 39 :   1;
	 40 :   1;	 46 :   1;	 61 :   1;	 68 :   1;	 78 :   1;
	 88 :   1;	 95 :   1;	 103 :   3;	 104 :   1;	 105 :   6;
	 106 :   1;	 110 :   7;	 111 :   1;	 112 :   2;	 113 :   2;
	 115 :   4;	 116 :   2;	 117 :   2;	 118 :   14;	 119 :   1;
	 120 :   1;	 121 :   8;	 122 :   5;	 123 :   4;	 125 :   2;
	 127 :   1;	 128 :   2;	 129 :   1;	 130 :   1;	 135 :   1;
	 136 :   1;	 139 :   1;	 140 :   7;	 142 :   1;	 144 :   1;
	 145 :   1;	 146 :   2;	 148 :   1;	 149 :   8;	 150 :   1;
	 151 :   3;	 152 :   5;	 153 :   10;	 154 :   7;	 156 :   1;
	 157 :   3;	 158 :   2;	 159 :   2;	 160 :   2;	 161 :   13;
	 162 :   5;	 163 :   5;	 164 :   2;	 165 :   4;	 166 :   1;
	 167 :   1;	 168 :   3;	 169 :   4;	 170 :   2;	 171 :   3;
	 172 :   2;	 173 :   3;	 174 :   2;	 175 :   2;	 176 :   1;
	 177 :   2;	 178 :   5;	 179 :   2;	 180 :   2;	 181 :   1;
	 182 :   2;	 183 :   10;	 186 :   2;	 187 :   3;	 188 :   3;
	 189 :   1;	 190 :   2;	 192 :   1;	 193 :   2;	 195 :   1;
	 196 :   2;	 198 :   5;	 199 :   5;	 201 :   7;	 202 :   4;
	 203 :   3;	 204 :   1;	 205 :   2;	 206 :   2;	 207 :   1;
	 213 :   1;	 214 :   4;	 215 :   2;	 216 :   1;	 217 :   3;
	 218 :   3;	 219 :   3;	 220 :   1;	 221 :   1;	 222 :   1;
	 223 :   1;	 225 :   1;	 226 :   1;	 228 :   1;	 229 :   2;
	 230 :   2;	 231 :   6;	 233 :   3;	 234 :   2;	 235 :   1;
	 236 :   1;	 239 :   1;	 240 :   2;	 241 :   2;	 242 :   1;
	 244 :   1;	 246 :   2;	 247 :   1;	 248 :   1;	 249 :   2;
	 250 :   1;	 251 :   1;	 252 :   2;	 253 :   2;	 254 :   4;
	 256 :   3;	 259 :   1;	 260 :   1;	 264 :   2;	 265 :   1;
	 268 :   1;	 273 :   3;	 276 :   1;	 278 :   2;	 279 :   4;
	 280 :   2;	 285 :   1;	 288 :   1;	 290 :   1;	 291 :   1;
	 292 :   1;	 296 :   1;	 305 :   2;	 317 :   1;	 318 :   3;
	 319 :   2;	 321 :   1;	 326 :   1;	 328 :   1;	 330 :   2;
	 333 :   1;	 343 :   1;	 344 :   1;	 345 :   1;	 347 :   1;
	 348 :   2;	 349 :   1;	 356 :   1;	 361 :   5;	 362 :   5;
	 363 :   1;	 369 :   1;	 370 :   1;	 373 :   1;	 376 :   2;
	 377 :   1;	 379 :   2;	 380 :   1;	 381 :   2;	 383 :   1;
	 384 :   1;	 385 :   1;	 397 :   1;	 398 :   3;	 402 :   1;
	 403 :   1;	 405 :   1;	 406 :   1;	 408 :   1;	 410 :   1;
	 423 :   1;	 428 :   1;	 429 :   1;	 433 :   1;	 437 :   1;
	 440 :   1;	 446 :   1;	 448 :   1;	 452 :   1;	 453 :   1;
	 454 :   1;	 456 :   1;	 458 :   1;	 460 :   1;	 461 :   1;
	 462 :   1;	 468 :   1;	 475 :   1;	 479 :   1;	 481 :   1;
	 482 :   1;	 484 :   1;	 485 :   1;	 489 :   1;	 492 :   1;
	 494 :   1;	 496 :   2;	 498 :   1;	 499 :   3;	 500 :   1;
	 508 :   1;	 513 :   1;	 567 :   1;	 568 :   1;	 569 :   2;
	 571 :   1;	 574 :   3;	 575 :   1;	 576 :   3;	 592 :   1;
	 594 :   1;	 641 :   1;	 642 :   1;	 662 :   1;	 788 :   1;
	 849 :   1;	 850 :   1;	 851 :   2;	 852 :   2;	 853 :   4;
	 854 :   21;	 857 :   1;	 858 :   1;	 859 :   1;	 860 :   1;
	 861 :   1;	 862 :   2;	 866 :   2;	 867 :   1;	 871 :   1;
	 872 :   2;	 873 :   1;	 875 :   3;	 877 :   1;	 880 :   1;
	 924 :   20;	 925 :   17;	 926 :   17;	 927 :   2;	 928 :   3;
	 929 :   16;	 930 :   2;	 932 :   2;	 933 :   1;	 934 :   1;
	 941 :   1;	 943 :   1;	 949 :   1;	 1038 :   1;	 1040 :   5;
	 1041 :   10;	 1042 :   9;	 1044 :   39;	 1045 :   16;	 1046 :   8;
	 1047 :   48;	 1048 :   5;	 1051 :   1;	 1054 :   9;	 1055 :   3;
	 1056 :   14;	 1058 :   3;	 1060 :   2;	 1061 :   1;	 1064 :   13;
	 1065 :   12;	 1066 :   1;	 1069 :   2;	 1070 :   2;	 1071 :   1;
	 1072 :   1;	 1073 :   1;	 1075 :   1;	 1077 :   3;	 1115 :   3;
	 1116 :   1;

Origin  4
	 1 :   64;	 2 :   6;	 3 :   7;	 4 :   473;
	 5 :   11;	 6 :   21;	 7 :   11;	 9 :   13;	 10 :   126;
	 11 :   1;	 12 :   6;	 13 :   3;	 14 :   5;	 15 :   18;
	 16 :   1;	 17 :   2;	 18 :   2;	 19 :   8;	 20 :   5;
	 21 :   3;	 22 :   1;	 23 :   2;	 24 :   1;	 26 :   2;
	 27 :   1;	 28 :   2;	 29 :   1;	 30 :   1;	 31 :   1;
	 32 :   1;	 33 :   1;	 34 :   2;	 36 :   1;	 37 :   3;
	 38 :   1;	 39 :   2;	 40 :   3;	 41 :   2;	 42 :   1;
	 46 :   2;	 47 :   1;	 50 :   1;	 57 :   1;	 61 :   3;
	 63 :   1;	 64 :   1;	 67 :   1;	 68 :   3;	 73 :   1;
	 76 :   1;	 78 :   1;	 79 :   1;	 86 :   1;	 87 :   1;
	 94 :   1;	 95 :   4;	 98 :   1;	 100 :   1;	 101 :   1;
	 102 :   1;	 103 :   7;	 104 :   1;	 105 :   13;	 106 :   3;
	 107 :   1;	 108 :   1;	 110 :   9;	 111 :   2;	 112 :   4;
	 113 :   3;	 115 :   9;	 116 :   3;	 117 :   4;	 118 :   33;
	 119 :   1;	 120 :   3;	 121 :   18;	 122 :   12;	 123 :   9;
	 125 :   5;	 126 :   1;	 127 :   2;	 128 :   3;	 129 :   2;
	 130 :   2;	 132 :   1;	 133 :   2;	 135 :   2;	 136 :   2;
	 137 :   1;	 139 :   1;	 140 :   15;	 141 :   1;	 142 :   3;
	 143 :   1;	 144 :   2;	 145 :   3;	 146 :   3;	 148 :   2;
	 149 :   20;	 150 :   1;	 151 :   7;	 152 :   9;	 153 :   22;
	 154 :   16;	 155 :   1;	 156 :   1;	 157 :   7;	 158 :   5;
	 159 :   5;	 160 :   6;	 161 :   24;	 162 :   11;	 163 :   12;
	 164 :   3;	 165 :   6;	 166 :   2;	 167 :   2;	 168 :   6;
	 169 :   9;	 170 :   3;	 171 :   7;	 172 :   6;	 173 :   7;
	 174 :   5;	 175 :   4;	 176 :   1;	 177 :   4;	 178 :   16;
	 179 :   4;	 180 :   7;	 181 :   3;	 182 :   5;	 183 :   25;
	 184 :   2;	 186 :   3;	 187 :   10;	 188 :   5;	 189 :   3;
	 190 :   5;	 191 :   2;	 192 :   3;	 193 :   6;	 194 :   1;
	 195 :   5;	 196 :   5;	 198 :   11;	 199 :   11;	 200 :   1;
	 201 :   16;	 202 :   9;	 203 :   6;	 204 :   3;	 205 :   5;
	 206 :   6;	 207 :   1;	 208 :   1;	 209 :   2;	 213 :   2;
	 214 :   10;	 215 :   5;	 216 :   2;	 217 :   9;	 218 :   7;
	 219 :   7;	 220 :   4;	 221 :   2;	 222 :   1;	 223 :   1;
	 225 :   1;	 226 :   1;	 228 :   2;	 229 :   6;	 230 :   6;
	 231 :   15;	 233 :   6;	 234 :   4;	 235 :   2;	 236 :   2;
	 238 :   1;	 239 :   2;	 240 :   5;	 241 :   3;	 242 :   3;
	 243 :   1;	 244 :   3;	 245 :   1;	 246 :   5;	 247 :   2;
	 248 :   2;	 249 :   4;	 250 :   3;	 251 :   3;	 252 :   4;
	 253 :   5;	 254 :   9;	 256 :   9;	 259 :   3;	 260 :   2;
	 261 :   2;	 262 :   1;	 263 :   1;	 264 :   6;	 265 :   2;
	 266 :   2;	 267 :   2;	 268 :   1;	 269 :   1;	 270 :   1;
	 271 :   2;	 272 :   1;	 273 :   9;	 274 :   1;	 275 :   1;
	 276 :   2;	 277 :   1;	 278 :   7;	 279 :   12;	 280 :   6;
	 281 :   1;	 282 :   1;	 283 :   1;	 284 :   1;	 285 :   3;
	 287 :   1;	 288 :   2;	 289 :   1;	 290 :   1;	 291 :   1;
	 292 :   2;	 293 :   1;	 294 :   1;	 295 :   1;	 296 :   3;
	 297 :   1;	 298 :   1;	 299 :   1;	 300 :   1;	 301 :   1;
	 302 :   1;	 303 :   2;	 305 :   6;	 306 :   1;	 314 :   1;
	 315 :   1;	 316 :   1;	 317 :   1;	 318 :   8;	 319 :   5;
	 320 :   1;	 321 :   2;	 322 :   1;	 323 :   1;	 326 :   2;
	 328 :   2;	 329 :   2;	 330 :   5;	 331 :   1;	 332 :   1;
	 333 :   1;	 335 :   2;	 336 :   1;	 340 :   1;	 341 :   1;
	 343 :   1;	 344 :   5;	 345 :   2;	 346 :   1;	 347 :   1;
	 348 :   5;	 349 :   2;	 351 :   1;	 353 :   1;	 354 :   1;
	 356 :   2;	 357 :   1;	 358 :   1;	 359 :   1;	 360 :   1;
	 361 :   9;	 362 :   17;	 363 :   2;	 364 :   1;	 365 :   1;
	 366 :   1;	 367 :   2;	 369 :   3;	 370 :   2;	 371 :   1;
	 372 :   1;	 373 :   2;	 374 :   2;	 375 :   1;	 376 :   8;
	 377 :   4;	 378 :   3;	 379 :   8;	 380 :   5;	 381 :   5;
	 382 :   2;	 383 :   2;	 384 :   3;	 385 :   3;	 386 :   2;
	 390 :   1;	 391 :   1;	 397 :   3;	 398 :   8;	 402 :   5;
	 403 :   1;	 405 :   3;	 406 :   4;	 408 :   2;	 409 :   2;
	 410 :   1;	 413 :   1;	 416 :   1;	 418 :   1;	 419 :   1;
	 421 :   1;	 423 :   1;	 426 :   1;	 428 :   2;	 429 :   1;
	 430 :   1;	 431 :   2;	 432 :   3;	 433 :   3;	 434 :   1;
	 435 :   1;	 437 :   3;	 439 :   1;	 440 :   2;	 441 :   2;
	 442 :   1;	 443 :   1;	 444 :   1;	 446 :   11;	 447 :   1;
	 448 :   3;	 450 :   1;	 451 :   2;	 452 :   1;	 453 :   3;
	 454 :   3;	 455 :   2;	 456 :   1;	 457 :   1;	 458 :   2;
	 459 :   1;	 460 :   3;	 461 :   3;	 462 :   2;	 465 :   1;
	 467 :   2;	 468 :   2;	 469 :   1;	 470 :   1;	 472 :   1;
	 473 :   1;	 475 :   1;	 476 :   1;	 477 :   1;	 479 :   3;
	 480 :   2;	 481 :   3;	 482 :   2;	 483 :   1;	 484 :   4;
	 485 :   3;	 487 :   2;	 488 :   1;	 489 :   1;	 490 :   1;
	 491 :   1;	 492 :   4;	 493 :   1;	 494 :   3;	 496 :   4;
	 497 :   1;	 498 :   2;	 499 :   5;	 500 :   2;	 502 :   1;
	 503 :   1;	 505 :   1;	 508 :   1;	 509 :   1;	 515 :   1;
	 520 :   1;	 521 :   1;	 524 :   1;	 525 :   1;	 526 :   1;
	 528 :   1;	 529 :   1;	 533 :   1;	 534 :   1;	 535 :   1;
	 536 :   1;	 538 :   1;	 543 :   1;	 547 :   1;	 558 :   1;
	 559 :   1;	 565 :   1;	 567 :   1;	 568 :   1;	 569 :   6;
	 570 :   1;	 571 :   2;	 573 :   1;	 574 :   8;	 575 :   3;
	 576 :   10;	 577 :   1;	 592 :   2;	 594 :   1;	 600 :   1;
	 610 :   1;	 611 :   1;	 623 :   1;	 626 :   1;	 641 :   2;
	 642 :   4;	 647 :   1;	 651 :   1;	 652 :   1;	 653 :   1;
	 662 :   1;	 664 :   1;	 696 :   1;	 700 :   1;	 702 :   1;
	 705 :   1;	 712 :   1;	 716 :   1;	 723 :   1;	 730 :   1;
	 731 :   1;	 739 :   1;	 748 :   1;	 757 :   1;	 776 :   1;
	 783 :   1;	 788 :   1;	 789 :   1;	 790 :   1;	 794 :   1;
	 795 :   1;	 802 :   1;	 812 :   1;	 832 :   1;	 836 :   1;
	 843 :   1;	 847 :   1;	 848 :   1;	 849 :   2;	 850 :   9;
	 851 :   7;	 852 :   8;	 853 :   18;	 854 :   42;	 855 :   2;
	 856 :   1;	 857 :   1;	 858 :   3;	 859 :   4;	 860 :   3;
	 861 :   2;	 862 :   5;	 863 :   1;	 865 :   1;	 866 :   5;
	 867 :   3;	 869 :   1;	 871 :   2;	 872 :   6;	 873 :   5;
	 875 :   10;	 877 :   3;	 878 :   1;	 880 :   2;	 885 :   1;
	 903 :   1;	 911 :   1;	 924 :   32;	 925 :   17;	 926 :   29;
	 927 :   4;	 928 :   5;	 929 :   19;	 930 :   3;	 931 :   1;
	 932 :   4;	 933 :   2;	 934 :   3;	 935 :   1;	 938 :   2;
	 940 :   1;	 941 :   2;	 943 :   1;	 946 :   1;	 948 :   1;
	 949 :   1;	 950 :   1;	 952 :   1;	 965 :   1;	 987 :   1;
	 996 :   1;	 997 :   1;	 1011 :   1;	 1028 :   1;	 1037 :   1;
	 1038 :   3;	 1039 :   1;	 1040 :   8;	 1041 :   14;	 1042 :   13;
	 1044 :   43;	 1045 :   18;	 1046 :   12;	 1047 :   78;	 1048 :   10;
	 1051 :   2;	 1052 :   1;	 1053 :   1;	 1054 :   13;	 1055 :   8;
	 1056 :   18;	 1058 :   5;	 1059 :   1;	 1060 :   3;	 1061 :   2;
	 1062 :   1;	 1064 :   23;	 1065 :   12;	 1066 :   1;	 1069 :   4;
	 1070 :   3;	 1071 :   2;	 1072 :   1;	 1073 :   2;	 1075 :   4;
	 1077 :   5;	 1113 :   37;	 1114 :   1;	 1115 :   8;	 1116 :   5;


Origin  5
	 1 :   4;	 2 :   1;	 3 :   1;	 4 :   4;
	 5 :   51;	 6 :   10;	 7 :   3;	 10 :   3;	 12 :   6;
	 13 :   1;	 14 :   3;	 15 :   6;	 18 :   1;	 19 :   3;
	 20 :   1;	 21 :   1;	 22 :   1;	 24 :   1;	 26 :   1;
	 28 :   1;	 36 :   1;	 37 :   1;	 40 :   1;	 41 :   1;
	 50 :   1;	 61 :   1;	 64 :   1;	 68 :   1;	 80 :   1;
	 95 :   1;	 103 :   1;	 105 :   1;	 110 :   2;	 112 :   1;
	 113 :   1;	 115 :   1;	 116 :   1;	 117 :   1;	 118 :   9;
	 120 :   1;	 121 :   4;	 122 :   2;	 123 :   1;	 125 :   1;
	 127 :   1;	 128 :   1;	 130 :   1;	 137 :   1;	 140 :   3;
	 142 :   1;	 145 :   1;	 146 :   1;	 148 :   1;	 149 :   5;
	 151 :   3;	 152 :   3;	 153 :   6;	 154 :   4;	 157 :   2;
	 158 :   2;	 159 :   1;	 160 :   1;	 161 :   9;	 162 :   4;
	 163 :   4;	 164 :   1;	 165 :   2;	 166 :   1;	 167 :   1;
	 168 :   2;	 169 :   3;	 170 :   1;	 171 :   2;	 172 :   2;
	 173 :   2;	 174 :   1;	 175 :   1;	 177 :   1;	 178 :   6;
	 179 :   2;	 180 :   3;	 181 :   1;	 182 :   2;	 183 :   7;
	 184 :   1;	 186 :   1;	 187 :   3;	 188 :   2;	 189 :   1;
	 190 :   1;	 192 :   1;	 193 :   2;	 195 :   1;	 196 :   1;
	 198 :   3;	 199 :   4;	 201 :   4;	 202 :   3;	 203 :   2;
	 205 :   1;	 206 :   1;	 209 :   1;	 214 :   3;	 215 :   2;
	 216 :   1;	 217 :   2;	 218 :   2;	 219 :   2;	 220 :   1;
	 223 :   1;	 229 :   2;	 230 :   1;	 231 :   4;	 233 :   2;
	 234 :   1;	 236 :   1;	 240 :   1;	 241 :   1;	 242 :   1;
	 244 :   1;	 246 :   1;	 248 :   1;	 249 :   1;	 250 :   1;
	 251 :   1;	 252 :   1;	 253 :   2;	 254 :   2;	 256 :   2;
	 259 :   1;	 261 :   1;	 264 :   2;	 265 :   1;	 269 :   1;
	 273 :   2;	 276 :   1;	 278 :   2;	 279 :   3;	 280 :   1;
	 285 :   1;	 287 :   1;	 288 :   1;	 292 :   1;	 300 :   1;
	 305 :   2;	 318 :   2;	 319 :   2;	 323 :   1;	 330 :   1;
	 333 :   1;	 335 :   1;	 344 :   1;	 348 :   1;	 352 :   1;
	 358 :   1;	 361 :   2;	 362 :   4;	 363 :   1;	 370 :   1;
	 373 :   1;	 376 :   2;	 377 :   1;	 378 :   1;	 379 :   2;
	 380 :   1;	 381 :   1;	 383 :   1;	 384 :   1;	 385 :   1;
	 397 :   1;	 398 :   2;	 402 :   1;	 406 :   1;	 409 :   1;
	 419 :   1;	 432 :   1;	 433 :   1;	 437 :   1;	 440 :   1;
	 446 :   1;	 448 :   1;	 453 :   1;	 456 :   1;	 460 :   1;
	 462 :   1;	 470 :   1;	 475 :   1;	 480 :   1;	 482 :   1;
	 484 :   1;	 485 :   1;	 487 :   1;	 490 :   1;	 492 :   1;
	 494 :   1;	 496 :   1;	 499 :   3;	 526 :   1;	 568 :   1;
	 569 :   1;	 574 :   2;	 575 :   1;	 576 :   4;	 662 :   1;
	 850 :   1;	 851 :   1;	 853 :   1;	 854 :   3;	 858 :   1;
	 862 :   1;	 866 :   1;	 872 :   1;	 873 :   1;	 875 :   1;
	 924 :   2;	 925 :   2;	 926 :   5;	 927 :   1;	 928 :   2;
	 929 :   3;	 930 :   1;	 932 :   1;	 948 :   1;	 1038 :   1;
	 1040 :   3;	 1041 :   3;	 1042 :   3;	 1044 :   8;	 1045 :   3;
	 1046 :   2;	 1047 :   5;	 1048 :   5;	 1051 :   1;	 1054 :   4;
	 1055 :   2;	 1056 :   3;	 1058 :   1;	 1060 :   1;	 1062 :   1;
	 1064 :   6;	 1065 :   2;	 1069 :   1;	 1071 :   1;	 1075 :   1;
	 1077 :   1;	 1115 :   1;	 1116 :   1;

Origin  6
	 1 :   8;	 2 :   1;	 3 :   3;	 4 :   10;
	 5 :   12;	 6 :   151;	 7 :   14;	 9 :   1;	 10 :   7;
	 12 :   10;	 13 :   5;	 14 :   15;	 15 :   26;	 16 :   1;
	 17 :   2;	 18 :   3;	 19 :   10;	 20 :   7;	 21 :   4;
	 22 :   3;	 23 :   4;	 24 :   2;	 26 :   2;	 27 :   1;
	 28 :   3;	 29 :   2;	 31 :   1;	 32 :   1;	 33 :   1;
	 34 :   2;	 35 :   1;	 36 :   1;	 37 :   5;	 38 :   1;
	 39 :   3;	 40 :   4;	 41 :   3;	 42 :   1;	 44 :   1;
	 46 :   1;	 47 :   1;	 49 :   1;	 50 :   1;	 57 :   1;
	 61 :   3;	 63 :   1;	 64 :   1;	 68 :   3;	 73 :   1;
	 74 :   1;	 76 :   1;	 78 :   1;	 79 :   1;	 86 :   1;
	 87 :   1;	 89 :   1;	 94 :   1;	 95 :   5;	 98 :   1;
	 100 :   1;	 101 :   1;	 102 :   1;	 103 :   2;	 105 :   3;
	 106 :   1;	 110 :   5;	 111 :   2;	 112 :   3;	 113 :   1;
	 115 :   5;	 116 :   2;	 117 :   6;	 118 :   54;	 119 :   1;
	 120 :   4;	 121 :   17;	 122 :   10;	 123 :   5;	 125 :   3;
	 126 :   1;	 127 :   2;	 128 :   3;	 129 :   2;	 130 :   2;
	 133 :   2;	 135 :   1;	 136 :   2;	 137 :   1;	 139 :   1;
	 140 :   19;	 141 :   1;	 142 :   4;	 143 :   1;	 144 :   2;
	 145 :   3;	 146 :   3;	 148 :   2;	 149 :   24;	 150 :   2;
	 151 :   24;	 152 :   20;	 153 :   33;	 154 :   23;	 155 :   1;
	 156 :   2;	 157 :   8;	 158 :   6;	 159 :   7;	 160 :   7;
	 161 :   49;	 162 :   19;	 163 :   18;	 164 :   7;	 165 :   13;
	 166 :   4;	 167 :   3;	 168 :   11;	 169 :   13;	 170 :   5;
	 171 :   8;	 172 :   6;	 173 :   8;	 174 :   6;	 175 :   5;
	 176 :   1;	 177 :   7;	 178 :   38;	 179 :   11;	 180 :   14;
	 181 :   5;	 182 :   9;	 183 :   36;	 184 :   3;	 185 :   1;
	 186 :   7;	 187 :   16;	 188 :   10;	 189 :   4;	 190 :   7;
	 191 :   2;	 192 :   5;	 193 :   7;	 194 :   1;	 195 :   6;
	 196 :   6;	 197 :   1;	 198 :   16;	 199 :   16;	 200 :   2;
	 201 :   20;	 202 :   12;	 203 :   7;	 204 :   3;	 205 :   6;
	 206 :   7;	 207 :   1;	 208 :   1;	 209 :   2;	 212 :   1;
	 213 :   3;	 214 :   12;	 215 :   7;	 216 :   3;	 217 :   11;
	 218 :   9;	 219 :   8;	 220 :   5;	 221 :   3;	 222 :   1;
	 223 :   1;	 224 :   1;	 225 :   1;	 226 :   1;	 227 :   1;
	 228 :   2;	 229 :   8;	 230 :   8;	 231 :   19;	 233 :   8;
	 234 :   6;	 235 :   2;	 236 :   2;	 237 :   1;	 239 :   2;
	 240 :   6;	 241 :   4;	 242 :   3;	 243 :   2;	 244 :   3;
	 245 :   2;	 246 :   6;	 247 :   2;	 248 :   4;	 249 :   5;
	 250 :   4;	 251 :   3;	 252 :   5;	 253 :   5;	 254 :   10;
	 256 :   11;	 258 :   1;	 259 :   3;	 260 :   3;	 261 :   2;
	 262 :   1;	 263 :   1;	 264 :   7;	 265 :   3;	 266 :   2;
	 267 :   1;	 268 :   1;	 269 :   1;	 270 :   1;	 271 :   1;
	 273 :   11;	 274 :   1;	 275 :   1;	 276 :   3;	 277 :   1;
	 278 :   8;	 279 :   13;	 280 :   6;	 281 :   1;	 282 :   1;
	 283 :   1;	 284 :   2;	 285 :   3;	 287 :   1;	 288 :   3;
	 289 :   2;	 290 :   2;	 291 :   1;	 292 :   3;	 293 :   1;
	 294 :   1;	 295 :   1;	 296 :   3;	 297 :   1;	 298 :   1;
	 299 :   2;	 300 :   1;	 301 :   1;	 302 :   1;	 303 :   1;
	 305 :   9;	 306 :   1;	 307 :   1;	 314 :   1;	 315 :   2;
	 317 :   2;	 318 :   9;	 319 :   5;	 320 :   1;	 321 :   1;
	 322 :   1;	 323 :   1;	 325 :   1;	 326 :   2;	 328 :   2;
	 329 :   1;	 330 :   5;	 331 :   1;	 332 :   1;	 333 :   2;
	 334 :   1;	 335 :   2;	 339 :   1;	 340 :   1;	 341 :   1;
	 343 :   1;	 344 :   6;	 345 :   2;	 346 :   1;	 347 :   1;
	 348 :   6;	 349 :   2;	 351 :   1;	 352 :   1;	 353 :   1;
	 354 :   1;	 356 :   2;	 357 :   1;	 358 :   1;	 359 :   1;
	 361 :   11;	 362 :   19;	 363 :   2;	 364 :   1;	 365 :   1;
	 367 :   2;	 368 :   1;	 369 :   3;	 370 :   2;	 371 :   1;
	 372 :   1;	 373 :   2;	 374 :   2;	 375 :   1;	 376 :   9;
	 377 :   4;	 378 :   2;	 379 :   8;	 380 :   5;	 381 :   5;
	 382 :   1;	 383 :   3;	 384 :   2;	 385 :   3;	 386 :   1;
	 390 :   1;	 396 :   1;	 397 :   2;	 398 :   7;	 399 :   1;
	 402 :   5;	 403 :   1;	 404 :   1;	 405 :   2;	 406 :   4;
	 408 :   2;	 409 :   2;	 410 :   2;	 413 :   1;	 419 :   1;
	 420 :   1;	 421 :   1;	 423 :   1;	 426 :   1;	 427 :   1;
	 428 :   2;	 429 :   1;	 430 :   1;	 431 :   2;	 432 :   4;
	 433 :   3;	 434 :   1;	 435 :   1;	 436 :   1;	 437 :   3;
	 439 :   1;	 440 :   2;	 441 :   2;	 442 :   1;	 443 :   1;
	 444 :   1;	 445 :   1;	 446 :   1;	 448 :   3;	 450 :   1;
	 451 :   2;	 452 :   1;	 453 :   3;	 454 :   2;	 455 :   2;
	 456 :   1;	 457 :   1;	 458 :   2;	 459 :   1;	 460 :   4;
	 461 :   2;	 462 :   3;	 463 :   1;	 467 :   2;	 468 :   3;
	 470 :   1;	 472 :   1;	 473 :   1;	 475 :   1;	 476 :   1;
	 477 :   1;	 479 :   2;	 480 :   2;	 481 :   3;	 482 :   2;
	 483 :   1;	 484 :   3;	 485 :   3;	 487 :   2;	 488 :   1;
	 489 :   1;	 490 :   1;	 491 :   1;	 492 :   4;	 493 :   1;
	 494 :   3;	 496 :   4;	 497 :   1;	 498 :   2;	 499 :   5;
	 500 :   2;	 503 :   1;	 505 :   1;	 507 :   1;	 508 :   1;
	 509 :   1;	 513 :   1;	 514 :   1;	 516 :   1;	 518 :   1;
	 520 :   1;	 521 :   1;	 525 :   1;	 526 :   1;	 528 :   1;
	 529 :   1;	 530 :   1;	 533 :   1;	 534 :   1;	 535 :   1;
	 536 :   1;	 542 :   1;	 544 :   1;	 558 :   1;	 567 :   1;
	 569 :   3;	 571 :   2;	 573 :   1;	 574 :   9;	 575 :   4;
	 576 :   20;	 579 :   1;	 592 :   3;	 593 :   1;	 594 :   1;
	 600 :   1;	 608 :   1;	 610 :   1;	 611 :   1;	 612 :   1;
	 618 :   1;	 626 :   1;	 641 :   1;	 642 :   2;	 652 :   1;
	 662 :   1;	 664 :   1;	 700 :   1;	 748 :   1;	 776 :   1;
	 790 :   1;	 794 :   1;	 835 :   1;	 843 :   1;	 847 :   1;
	 849 :   2;	 850 :   1;	 851 :   2;	 852 :   2;	 853 :   3;
	 854 :   7;	 855 :   1;	 858 :   1;	 859 :   2;	 860 :   1;
	 862 :   2;	 865 :   1;	 866 :   1;	 867 :   1;	 871 :   1;
	 872 :   2;	 873 :   2;	 875 :   3;	 877 :   2;	 878 :   1;
	 880 :   1;	 898 :   1;	 924 :   6;	 925 :   5;	 926 :   17;
	 927 :   4;	 928 :   7;	 929 :   8;	 930 :   2;	 931 :   1;
	 932 :   3;	 934 :   1;	 938 :   1;	 941 :   1;	 948 :   1;
	 949 :   1;	 982 :   1;	 1011 :   1;	 1038 :   1;	 1040 :   8;
	 1041 :   12;	 1042 :   8;	 1044 :   20;	 1045 :   9;	 1046 :   3;
	 1047 :   12;	 1048 :   27;	 1051 :   3;	 1053 :   1;	 1054 :   18;
	 1055 :   11;	 1056 :   7;	 1058 :   3;	 1059 :   1;	 1060 :   3;
	 1061 :   2;	 1062 :   1;	 1064 :   39;	 1065 :   5;	 1066 :   1;
	 1069 :   4;	 1070 :   2;	 1071 :   3;	 1072 :   1;	 1073 :   2;
	 1075 :   3;	 1077 :   5;	 1083 :   1;	 1088 :   1;	 1101 :   1;
	 1112 :   1;	 1113 :   1;	 1115 :   5;	 1116 :   3;

Origin  7
	 1 :   12;	 2 :   1;	 3 :   4;	 4 :   11;
	 5 :   7;	 6 :   29;	 7 :   33;	 10 :   6;	 11 :   1;
	 12 :   5;	 13 :   2;	 14 :   6;	 15 :   15;	 16 :   1;
	 17 :   2;	 18 :   1;	 19 :   5;	 20 :   4;	 21 :   2;
	 22 :   2;	 23 :   2;	 24 :   1;	 26 :   1;	 27 :   1;
	 28 :   1;	 29 :   1;	 33 :   1;	 34 :   1;	 36 :   1;
	 37 :   2;	 38 :   1;	 39 :   2;	 40 :   3;	 41 :   2;
	 43 :   1;	 46 :   1;	 47 :   1;	 49 :   1;	 57 :   1;
	 61 :   2;	 64 :   1;	 68 :   2;	 73 :   1;	 78 :   1;
	 79 :   1;	 86 :   1;	 95 :   3;	 101 :   1;	 102 :   1;
	 103 :   2;	 105 :   6;	 106 :   2;	 107 :   1;	 110 :   13;
	 111 :   2;	 112 :   4;	 113 :   2;	 115 :   5;	 116 :   2;
	 117 :   6;	 118 :   44;	 119 :   2;	 120 :   3;	 121 :   22;
	 122 :   9;	 123 :   7;	 124 :   1;	 125 :   3;	 127 :   1;
	 128 :   3;	 129 :   1;	 130 :   2;	 132 :   1;	 133 :   1;
	 135 :   2;	 136 :   1;	 137 :   1;	 139 :   1;	 140 :   17;
	 141 :   1;	 142 :   3;	 144 :   1;	 145 :   3;	 146 :   3;
	 148 :   2;	 149 :   18;	 150 :   1;	 151 :   9;	 152 :   15;
	 153 :   28;	 154 :   23;	 155 :   1;	 156 :   2;	 157 :   7;
	 158 :   6;	 159 :   5;	 160 :   6;	 161 :   37;	 162 :   15;
	 163 :   15;	 164 :   5;	 165 :   10;	 166 :   2;	 167 :   2;
	 168 :   8;	 169 :   11;	 170 :   4;	 171 :   6;	 172 :   6;
	 173 :   7;	 174 :   4;	 175 :   4;	 176 :   1;	 177 :   5;
	 178 :   18;	 179 :   4;	 180 :   7;	 181 :   4;	 182 :   4;
	 183 :   28;	 184 :   1;	 186 :   4;	 187 :   12;	 188 :   7;
	 189 :   3;	 190 :   5;	 191 :   2;	 192 :   4;	 193 :   5;
	 194 :   1;	 195 :   4;	 196 :   5;	 198 :   12;	 199 :   12;
	 200 :   2;	 201 :   16;	 202 :   9;	 203 :   6;	 204 :   2;
	 205 :   5;	 206 :   6;	 208 :   1;	 209 :   2;	 213 :   1;
	 214 :   10;	 215 :   5;	 216 :   2;	 217 :   8;	 218 :   7;
	 219 :   7;	 220 :   4;	 221 :   2;	 222 :   1;	 223 :   1;
	 225 :   1;	 226 :   1;	 228 :   2;	 229 :   6;	 230 :   6;
	 231 :   16;	 233 :   6;	 234 :   5;	 235 :   2;	 236 :   2;
	 239 :   2;	 240 :   5;	 241 :   3;	 242 :   3;	 243 :   1;
	 244 :   3;	 245 :   1;	 246 :   4;	 247 :   2;	 248 :   3;
	 249 :   4;	 250 :   4;	 251 :   3;	 252 :   4;	 253 :   4;
	 254 :   8;	 255 :   1;	 256 :   8;	 259 :   3;	 260 :   2;
	 261 :   2;	 262 :   1;	 264 :   5;	 265 :   2;	 266 :   1;
	 267 :   1;	 268 :   1;	 269 :   1;	 271 :   1;	 273 :   10;
	 275 :   1;	 276 :   2;	 277 :   1;	 278 :   7;	 279 :   11;
	 280 :   5;	 282 :   1;	 284 :   2;	 285 :   3;	 287 :   1;
	 288 :   2;	 289 :   1;	 290 :   1;	 291 :   1;	 292 :   2;
	 293 :   1;	 295 :   1;	 296 :   2;	 297 :   1;	 298 :   1;
	 299 :   1;	 300 :   1;	 301 :   1;	 302 :   1;	 303 :   1;
	 305 :   5;	 306 :   1;	 315 :   1;	 316 :   1;	 317 :   1;
	 318 :   7;	 319 :   4;	 320 :   1;	 321 :   1;	 322 :   1;
	 323 :   1;	 326 :   2;	 328 :   2;	 329 :   1;	 330 :   4;
	 331 :   1;	 332 :   1;	 333 :   1;	 335 :   1;	 340 :   1;
	 343 :   1;	 344 :   4;	 345 :   1;	 346 :   1;	 347 :   1;
	 348 :   4;	 349 :   1;	 351 :   1;	 352 :   1;	 354 :   1;
	 356 :   2;	 357 :   1;	 358 :   1;	 359 :   1;	 360 :   1;
	 361 :   9;	 362 :   11;	 363 :   1;	 364 :   1;	 365 :   1;
	 367 :   1;	 369 :   2;	 370 :   1;	 371 :   1;	 373 :   2;
	 374 :   1;	 375 :   1;	 376 :   6;	 377 :   3;	 378 :   2;
	 379 :   5;	 380 :   4;	 381 :   3;	 382 :   1;	 383 :   2;
	 384 :   2;	 385 :   2;	 386 :   1;	 393 :   1;	 396 :   1;
	 397 :   2;	 398 :   6;	 400 :   1;	 402 :   4;	 403 :   1;
	 405 :   2;	 406 :   3;	 408 :   2;	 409 :   2;	 410 :   1;
	 413 :   1;	 419 :   1;	 420 :   1;	 421 :   1;	 423 :   1;
	 427 :   1;	 428 :   1;	 429 :   1;	 431 :   2;	 432 :   2;
	 433 :   1;	 434 :   1;	 435 :   1;	 437 :   3;	 440 :   2;
	 441 :   1;	 442 :   1;	 443 :   1;	 444 :   1;	 446 :   1;
	 448 :   3;	 451 :   2;	 452 :   1;	 453 :   2;	 454 :   2;