<NUMBER OF ZONES> 1462
<TOTAL OD FLOW> 1312456
<END OF METADATA>


Origin 1
	35 : 1;
	49 : 1;
	50 : 1;
	51 : 5;
	52 : 2;
	55 : 1;
	56 : 5;
	63 : 1;
	64 : 1;
	68 : 2;
	71 : 3;
	79 : 4;
	88 : 1;
	92 : 1;
	97 : 19;
	106 : 2;
	128 : 3;
	129 : 9;
	137 : 3;
	152 : 1;
	153 : 1;
	154 : 2;
	155 : 1;
	156 : 2;
	157 : 1;
	159 : 5;
	162 : 2;
	163 : 1;
	164 : 1;
	165 : 4;
	167 : 26;
	169 : 1;
	170 : 5;
	171 : 2;
	173 : 1;
	174 : 1;
	176 : 1;
	177 : 2;
	179 : 9;
	184 : 3;
	186 : 1;
	188 : 2;
	189 : 3;
	194 : 1;
	195 : 2;
	198 : 5;
	199 : 1;
	200 : 1;
	201 : 8;
	202 : 8;
	203 : 5;
	207 : 3;
	209 : 1;
	210 : 10;
	211 : 2;
	212 : 2;
	213 : 1;
	214 : 3;
	215 : 2;
	224 : 4;
	226 : 1;
	227 : 5;
	229 : 1;
	230 : 2;
	231 : 1;
	232 : 1;
	233 : 3;
	236 : 11;
	239 : 3;
	242 : 10;
	244 : 2;
	247 : 2;
	248 : 2;
	249 : 4;
	250 : 1;
	251 : 9;
	252 : 6;
	254 : 1;
	255 : 1;
	260 : 2;
	264 : 55;
	265 : 15;
	266 : 45;
	268 : 5;
	269 : 2;
	272 : 1;
	278 : 1;
	279 : 2;
	280 : 18;
	281 : 1;
	288 : 1;
	289 : 1;
	290 : 1;
	293 : 2;
	294 : 11;
	295 : 3;
	299 : 8;
	300 : 1;
	302 : 2;
	304 : 1;
	305 : 2;
	313 : 1;
	314 : 2;
	322 : 8;
	323 : 3;
	325 : 3;
	327 : 9;
	329 : 7;
	334 : 14;
	336 : 1;
	337 : 7;
	339 : 4;
	341 : 3;
	348 : 5;
	350 : 14;
	354 : 1;
	364 : 1;
	365 : 1;
	367 : 4;
	369 : 2;
	371 : 7;
	377 : 14;
	379 : 2;
	387 : 1;
	397 : 3;
	398 : 6;
	399 : 1;
	400 : 1;
	402 : 1;
	405 : 3;
	408 : 3;
	411 : 3;
	420 : 2;
	421 : 4;
	423 : 2;
	425 : 3;
	428 : 4;
	430 : 5;
	431 : 2;
	432 : 3;
	436 : 2;
	438 : 1;
	451 : 2;
	466 : 5;
	468 : 2;
	469 : 4;
	470 : 1;
	480 : 2;
	481 : 3;
	493 : 1;
	495 : 1;
	498 : 2;
	501 : 2;
	503 : 2;
	506 : 1;
	511 : 1;
	516 : 1;
	533 : 3;
	537 : 1;
	560 : 1;
	580 : 1;
	584 : 1;
	600 : 2;
	607 : 29;
	617 : 1;
	622 : 2;
	623 : 6;
	643 : 1;
	676 : 1;
	689 : 1;
	691 : 8;
	711 : 14;
	757 : 2;
	763 : 1;
	786 : 1;
	800 : 1;
	822 : 1;
	899 : 1;
	900 : 2;
	901 : 3;
	902 : 4;
	903 : 6;
	907 : 3;
	908 : 6;
	909 : 3;
	910 : 4;
	911 : 5;
	912 : 4;
	916 : 2;
	918 : 1;
	920 : 2;
	921 : 6;
	922 : 9;
	923 : 7;
	924 : 5;
	928 : 2;
	930 : 1;
	973 : 7;
	975 : 4;
	977 : 25;
	978 : 5;
	979 : 14;
	981 : 3;
	987 : 4;
	988 : 2;
	989 : 2;
	990 : 14;
	991 : 4;
	992 : 9;
	993 : 2;
	994 : 1;
	995 : 8;
	996 : 2;
	997 : 3;
	998 : 1;
	1002 : 2;
	1005 : 1;
	1051 : 2;
	1055 : 1;
	1074 : 2;
	1077 : 1;
	1086 : 2;
	1089 : 1;
	1091 : 5;
	1093 : 2;
	1094 : 5;
	1095 : 2;
	1096 : 2;
	1097 : 4;
	1098 : 6;
	1103 : 2;
	1104 : 1;
	1107 : 1;
	1110 : 2;
	1111 : 1;
	1113 : 5;
	1114 : 1;
	1119 : 3;
	1120 : 3;
	1127 : 1;
	1153 : 2;
	1164 : 1;
	1174 : 1;
	1177 : 1;
	1182 : 2;
	1272 : 4;
	1303 : 1;
	1322 : 2;
	1350 : 1;
	1365 : 1;
	1371 : 4;
	1397 : 9;
	1403 : 2;
	1408 : 1;
	1411 : 2;
	1442 : 1;
	1444 : 1;
	1446 : 2;
	1447 : 1;
	1451 : 1;
	1457 : 2;
	1462 : 2;

Origin 2
	14 : 2;
	40 : 1;
	54 : 2;
	60 : 1;
	62 : 1;
	64 : 1;
	78 : 1;
	89 : 2;
	113 : 1;
	123 : 1;
	137 : 3;
	164 : 2;
	167 : 2;
	170 : 2;
	171 : 1;
	176 : 2;
	179 : 8;
	189 : 1;
	198 : 1;
	202 : 1;
	210 : 2;
	215 : 1;
	237 : 1;
	239 : 1;
	247 : 21;
	250 : 1;
	252 : 7;
	253 : 1;
	254 : 3;
	260 : 3;
	264 : 5;
	266 : 6;
	329 : 3;
	351 : 2;
	367 : 1;
	368 : 2;
	398 : 2;
	417 : 1;
	425 : 3;
	426 : 10;
	433 : 5;
	448 : 1;
	450 : 1;
	492 : 1;
	497 : 1;
	518 : 1;
	526 : 2;
	540 : 2;
	549 : 1;
	581 : 2;
	685 : 2;
	691 : 1;
	818 : 1;
	829 : 1;
	833 : 1;
	866 : 1;
	873 : 5;
	884 : 1;
	903 : 1;
	908 : 2;
	911 : 2;
	916 : 1;
	920 : 2;
	921 : 1;
	922 : 1;
	923 : 2;
	974 : 1;
	975 : 1;
	977 : 2;
	990 : 1;
	997 : 2;
	1044 : 1;
	1086 : 2;
	1094 : 1;
	1097 : 1;
	1113 : 2;
	1124 : 1;
	1149 : 1;
	1153 : 2;
	1167 : 2;
	1263 : 1;
	1264 : 1;
	1289 : 1;
	1302 : 1;
	1321 : 4;
	1350 : 2;
	1379 : 1;
	1381 : 1;
	1403 : 1;
	1410 : 2;
	1433 : 2;
	1442 : 1;
	1450 : 1;
	1451 : 1;

Origin 3
	8 : 2;
	9 : 2;
	20 : 1;
	23 : 3;
	24 : 8;
	25 : 1;
	26 : 5;
	35 : 151;
	47 : 8;
	49 : 12;
	50 : 11;
	51 : 34;
	55 : 24;
	56 : 8;
	61 : 1;
	64 : 3;
	68 : 8;
	76 : 1;
	77 : 2;
	79 : 38;
	89 : 19;
	96 : 2;
	97 : 24;
	107 : 7;
	122 : 1;
	128 : 8;
	129 : 4;
	132 : 8;
	135 : 10;
	152 : 10;
	155 : 20;
	156 : 1;
	157 : 9;
	159 : 20;
	160 : 8;
	162 : 7;
	163 : 6;
	164 : 12;
	165 : 89;
	167 : 15;
	168 : 1;
	170 : 19;
	171 : 10;
	172 : 5;
	173 : 6;
	174 : 7;
	176 : 26;
	177 : 22;
	178 : 2;
	179 : 45;
	180 : 9;
	182 : 15;
	184 : 4;
	185 : 2;
	186 : 21;
	189 : 3;
	191 : 11;
	192 : 13;
	193 : 4;
	195 : 4;
	197 : 52;
	198 : 74;
	199 : 12;
	200 : 3;
	201 : 24;
	202 : 13;
	203 : 6;
	206 : 3;
	207 : 16;
	208 : 11;
	209 : 40;
	210 : 13;
	211 : 1;
	212 : 7;
	213 : 2;
	214 : 8;
	216 : 3;
	217 : 1;
	218 : 15;
	219 : 4;
	220 : 7;
	221 : 16;
	222 : 26;
	223 : 30;
	224 : 63;
	226 : 14;
	227 : 12;
	229 : 12;
	232 : 23;
	233 : 12;
	236 : 9;
	237 : 3;
	238 : 1;
	239 : 16;
	242 : 19;
	243 : 18;
	247 : 24;
	248 : 12;
	249 : 15;
	250 : 29;
	251 : 25;
	252 : 8;
	254 : 2;
	255 : 21;
	257 : 5;
	258 : 4;
	260 : 1;
	263 : 17;
	264 : 59;
	265 : 11;
	266 : 15;
	267 : 11;
	268 : 13;
	269 : 5;
	270 : 11;
	272 : 27;
	273 : 7;
	276 : 33;
	277 : 9;
	278 : 7;
	280 : 39;
	281 : 2;
	282 : 1;
	283 : 14;
	284 : 13;
	285 : 10;
	287 : 12;
	288 : 2;
	289 : 4;
	290 : 11;
	291 : 13;
	293 : 193;
	294 : 12;
	295 : 5;
	296 : 5;
	297 : 4;
	298 : 3;
	299 : 10;
	300 : 21;
	301 : 14;
	302 : 53;
	303 : 18;
	305 : 32;
	307 : 3;
	308 : 3;
	309 : 9;
	310 : 1;
	312 : 1;
	313 : 22;
	314 : 28;
	315 : 34;
	316 : 11;
	321 : 419;
	322 : 17;
	323 : 7;
	324 : 3;
	325 : 2;
	327 : 13;
	328 : 42;
	329 : 33;
	334 : 10;
	337 : 24;
	339 : 15;
	340 : 9;
	341 : 38;
	342 : 24;
	344 : 12;
	345 : 2;
	346 : 8;
	348 : 25;
	349 : 2;
	350 : 359;
	351 : 175;
	352 : 181;
	353 : 12;
	354 : 4;
	355 : 6;
	361 : 1;
	364 : 9;
	366 : 6;
	367 : 13;
	368 : 7;
	369 : 23;
	370 : 16;
	371 : 17;
	373 : 2;
	375 : 15;
	376 : 4;
	377 : 11;
	379 : 30;
	380 : 4;
	381 : 6;
	382 : 16;
	384 : 1;
	389 : 1;
	390 : 5;
	393 : 4;
	394 : 18;
	395 : 7;
	396 : 6;
	397 : 19;
	398 : 1;
	400 : 5;
	402 : 22;
	403 : 4;
	404 : 7;
	405 : 1;
	406 : 3;
	408 : 16;
	409 : 11;
	410 : 6;
	411 : 2;
	416 : 5;
	418 : 7;
	419 : 5;
	421 : 19;
	422 : 13;
	424 : 38;
	425 : 10;
	426 : 13;
	427 : 2;
	428 : 25;
	429 : 8;
	430 : 13;
	431 : 8;
	432 : 29;
	433 : 5;
	435 : 3;
	437 : 1;
	438 : 30;
	439 : 6;
	440 : 5;
	441 : 9;
	442 : 8;
	444 : 8;
	445 : 25;
	446 : 29;
	447 : 86;
	451 : 14;
	453 : 8;
	454 : 5;
	455 : 34;
	456 : 14;
	457 : 7;
	458 : 29;
	459 : 12;
	460 : 1;
	464 : 15;
	465 : 1;
	468 : 4;
	469 : 3;
	472 : 7;
	474 : 4;
	475 : 2;
	476 : 12;
	477 : 22;
	480 : 4;
	483 : 4;
	488 : 15;
	490 : 10;
	493 : 34;
	495 : 8;
	498 : 16;
	501 : 9;
	502 : 29;
	506 : 26;
	507 : 13;
	508 : 1;
	509 : 2;
	511 : 8;
	523 : 6;
	527 : 10;
	528 : 4;
	529 : 4;
	530 : 6;
	531 : 1;
	532 : 4;
	533 : 7;
	537 : 2;
	542 : 3;
	543 : 1;
	545 : 1;
	547 : 9;
	549 : 45;
	551 : 16;
	562 : 2;
	564 : 10;
	567 : 7;
	574 : 29;
	576 : 2;
	577 : 9;
	578 : 17;
	584 : 3;
	586 : 1;
	589 : 1;
	606 : 22;
	607 : 11;
	618 : 1;
	619 : 8;
	620 : 2;
	623 : 12;
	625 : 1;
	633 : 1;
	641 : 6;
	643 : 20;
	648 : 1;
	659 : 3;
	671 : 10;
	674 : 7;
	681 : 5;
	682 : 5;
	683 : 2;
	684 : 2;
	686 : 1;
	689 : 6;
	690 : 3;
	691 : 24;
	693 : 2;
	698 : 2;
	699 : 2;
	701 : 1;
	702 : 2;
	703 : 2;
	710 : 2;
	711 : 16;
	714 : 12;
	843 : 19;
	898 : 5;
	901 : 4;
	902 : 5;
	903 : 25;
	907 : 13;
	908 : 64;
	909 : 52;
	910 : 11;
	911 : 32;
	914 : 1;
	915 : 2;
	916 : 3;
	920 : 6;
	921 : 17;
	922 : 51;
	923 : 13;
	924 : 38;
	925 : 2;
	926 : 85;
	927 : 29;
	928 : 36;
	930 : 1;
	934 : 2;
	973 : 3;
	975 : 13;
	977 : 56;
	978 : 4;
	979 : 78;
	982 : 1;
	985 : 6;
	986 : 1;
	987 : 23;
	988 : 2;
	989 : 2;
	991 : 1;
	992 : 2;
	995 : 2;
	996 : 1;
	997 : 30;
	1000 : 5;
	1004 : 12;
	1011 : 1;
	1012 : 1;
	1013 : 2;
	1018 : 1;
	1026 : 3;
	1028 : 1;
	1033 : 1;
	1037 : 1;
	1048 : 1;
	1049 : 1;
	1053 : 3;
	1061 : 1;
	1072 : 11;
	1073 : 4;
	1074 : 5;
	1078 : 4;
	1086 : 2;
	1089 : 3;
	1090 : 5;
	1091 : 13;
	1092 : 3;
	1093 : 15;
	1094 : 36;
	1097 : 9;
	1098 : 4;
	1102 : 1;
	1103 : 3;
	1104 : 4;
	1107 : 6;
	1108 : 5;
	1110 : 5;
	1111 : 1;
	1112 : 1;
	1117 : 18;
	1119 : 12;
	1120 : 12;
	1121 : 3;
	1146 : 9;
	1147 : 1;
	1149 : 4;
	1153 : 1;
	1162 : 2;
	1163 : 2;
	1164 : 1;
	1167 : 1;
	1177 : 3;
	1192 : 1;
	1198 : 9;
	1199 : 9;
	1213 : 3;
	1222 : 16;
	1258 : 8;
	1267 : 1;
	1268 : 1;
	1365 : 16;
	1366 : 1;
	1367 : 2;
	1371 : 3;
	1372 : 6;
	1386 : 1;
	1387 : 10;
	1388 : 42;
	1390 : 12;
	1391 : 3;
	1397 : 11;
	1400 : 10;
	1401 : 64;
	1402 : 14;
	1403 : 21;
	1404 : 24;
	1407 : 2;
	1409 : 2;
	1411 : 21;
	1412 : 8;
	1427 : 17;
	1442 : 48;
	1447 : 3;
	1451 : 14;
	1452 : 3;
	1457 : 27;
	1459 : 17;
	1460 : 5;
	1462 : 42;

Origin 4
	1 : 1;
	34 : 1;
	45 : 2;
	64 : 1;
	82 : 1;
	133 : 1;
	159 : 1;
	162 : 1;
	163 : 2;
	187 : 4;
	199 : 2;
	217 : 1;
	223 : 4;
	267 : 8;
	275 : 25;
	301 : 8;
	314 : 27;
	318 : 1;
	389 : 9;
	432 : 1;
	444 : 4;
	456 : 2;
	468 : 2;
	536 : 1;
	547 : 1;
	593 : 1;
	596 : 1;
	623 : 1;
	628 : 1;
	641 : 4;
	647 : 1;
	677 : 2;
	680 : 1;
	681 : 2;
	705 : 1;
	734 : 1;
	745 : 1;
	854 : 1;
	903 : 2;
	907 : 2;
	928 : 8;
	981 : 1;
	982 : 1;
	1043 : 1;
	1059 : 1;
	1063 : 1;
	1068 : 2;
	1115 : 2;
	1150 : 2;
	1166 : 2;
	1185 : 1;
	1234 : 1;
	1272 : 1;
	1293 : 2;
	1328 : 4;
	1336 : 1;
	1362 : 1;
	1363 : 1;
	1400 : 1;

Origin 5
	1 : 1;
	3 : 2;
	7 : 1;
	13 : 1;
	15 : 1;
	37 : 1;
	256 : 1;
	259 : 2;
	265 : 4;
	281 : 1;
	294 : 3;
	334 : 2;
	350 : 1;
	359 : 1;
	361 : 1;
	394 : 2;
	398 : 1;
	421 : 2;
	428 : 5;
	474 : 1;
	475 : 1;
	501 : 3;
	551 : 1;
	577 : 1;
	611 : 2;
	612 : 1;
	620 : 1;
	627 : 1;
	628 : 1;
	632 : 1;
	652 : 2;
	661 : 2;
	682 : 1;
	716 : 2;
	756 : 1;
	778 : 1;
	783 : 1;
	826 : 1;
	840 : 1;
	862 : 1;
	919 : 1;
	944 : 1;
	951 : 1;
	1059 : 1;
	1070 : 1;
	1112 : 2;
	1153 : 1;
	1156 : 1;
	1158 : 8;
	1263 : 1;
	1332 : 1;
	1384 : 9;
	1424 : 1;
	1428 : 1;

Origin 6
	7 : 4;
	11 : 1;
	19 : 3;
	24 : 2;
	29 : 1;
	54 : 2;
	69 : 2;
	79 : 1;
	80 : 1;
	88 : 1;
	97 : 1;
	106 : 1;
	149 : 1;
	155 : 1;
	160 : 1;
	165 : 17;
	167 : 1;
	170 : 7;
	176 : 2;
	177 : 1;
	179 : 3;
	182 : 1;
	184 : 1;
	195 : 4;
	198 : 12;
	199 : 1;
	208 : 6;
	209 : 2;
	219 : 1;
	221 : 1;
	222 : 1;
	223 : 1;
	224 : 4;
	225 : 1;
	227 : 1;
	236 : 1;
	237 : 2;
	241 : 2;
	242 : 10;
	247 : 11;
	249 : 1;
	251 : 1;
	257 : 2;
	264 : 2;
	266 : 8;
	269 : 1;
	272 : 1;
	279 : 2;
	280 : 4;
	281 : 5;
	283 : 1;
	301 : 12;
	302 : 3;
	306 : 2;
	309 : 3;
	314 : 12;
	315 : 1;
	319 : 2;
	321 : 1;
	326 : 1;
	328 : 4;
	329 : 11;
	332 : 1;
	335 : 2;
	338 : 3;
	339 : 2;
	341 : 2;
	342 : 16;
	344 : 28;
	347 : 5;
	348 : 1;
	349 : 1;
	352 : 1;
	354 : 1;
	356 : 1;
	367 : 6;
	369 : 3;
	371 : 1;
	379 : 5;
	381 : 2;
	391 : 4;
	393 : 4;
	394 : 3;
	395 : 1;
	397 : 1;
	400 : 4;
	410 : 1;
	421 : 6;
	425 : 5;
	426 : 2;
	427 : 3;
	431 : 5;
	432 : 2;
	451 : 3;
	452 : 2;
	454 : 3;
	461 : 4;
	464 : 1;
	483 : 16;
	484 : 9;
	511 : 1;
	516 : 2;
	533 : 1;
	584 : 7;
	590 : 1;
	606 : 1;
	611 : 2;
	628 : 2;
	643 : 1;
	674 : 1;
	681 : 1;
	682 : 18;
	686 : 5;
	689 : 1;
	693 : 2;
	696 : 1;
	698 : 1;
	699 : 2;
	700 : 5;
	701 : 5;
	702 : 7;
	703 : 2;
	709 : 3;
	711 : 3;
	712 : 1;
	714 : 1;
	833 : 1;
	844 : 1;
	868 : 1;
	901 : 2;
	907 : 1;
	908 : 6;
	909 : 2;
	910 : 1;
	911 : 7;
	920 : 1;
	921 : 1;
	922 : 3;
	923 : 6;
	924 : 4;
	926 : 1;
	927 : 2;
	928 : 2;
	934 : 1;
	941 : 1;
	972 : 1;
	975 : 1;
	979 : 3;
	984 : 1;
	989 : 1;
	995 : 2;
	997 : 4;
	1005 : 1;
	1014 : 4;
	1018 : 1;
	1019 : 1;
	1020 : 1;
	1044 : 1;
	1052 : 1;
	1053 : 1;
	1055 : 2;
	1061 : 4;
	1062 : 1;
	1074 : 1;
	1078 : 2;
	1086 : 1;
	1098 : 2;
	1101 : 13;
	1108 : 1;
	1114 : 1;
	1119 : 3;
	1121 : 2;
	1148 : 1;
	1149 : 1;
	1169 : 4;
	1189 : 1;
	1222 : 1;
	1238 : 1;
	1243 : 1;
	1258 : 2;
	1269 : 1;
	1273 : 1;
	1317 : 1;
	1367 : 1;
	1388 : 1;
	1392 : 1;
	1400 : 2;
	1401 : 7;
	1402 : 2;
	1403 : 2;
	1404 : 1;
	1442 : 2;
	1447 : 1;
	1448 : 1;
	1451 : 1;

Origin 7
	50 : 1;
	62 : 1;
	64 : 2;
	89 : 2;
	137 : 1;
	149 : 3;
	152 : 1;
	156 : 1;
	157 : 2;
	159 : 1;
	161 : 1;
	163 : 2;
	165 : 4;
	170 : 1;
	179 : 4;
	182 : 2;
	186 : 2;
	189 : 1;
	192 : 2;
	195 : 1;
	198 : 6;
	199 : 2;
	200 : 1;
	208 : 3;
	215 : 1;
	218 : 1;
	223 : 5;
	224 : 1;
	225 : 2;
	242 : 1;
	243 : 1;
	247 : 5;
	248 : 2;
	249 : 5;
	250 : 2;
	251 : 7;
	252 : 4;
	254 : 2;
	255 : 1;
	264 : 3;
	266 : 27;
	268 : 2;
	272 : 1;
	292 : 4;
	302 : 2;
	315 : 3;
	317 : 1;
	321 : 1;
	325 : 2;
	336 : 2;
	341 : 12;
	350 : 1;
	354 : 3;
	357 : 2;
	367 : 2;
	377 : 2;
	387 : 1;
	397 : 2;
	405 : 2;
	406 : 2;
	421 : 4;
	428 : 4;
	430 : 2;
	431 : 1;
	432 : 1;
	441 : 2;
	454 : 4;
	477 : 1;
	482 : 1;
	490 : 3;
	501 : 5;
	507 : 1;
	548 : 1;
	578 : 1;
	607 : 1;
	641 : 2;
	643 : 1;
	646 : 1;
	649 : 1;
	672 : 1;
	684 : 1;
	686 : 4;
	690 : 1;
	691 : 1;
	698 : 3;
	700 : 1;
	701 : 6;
	702 : 7;
	710 : 2;
	711 : 1;
	837 : 1;
	858 : 1;
	883 : 1;
	908 : 2;
	909 : 4;
	911 : 1;
	921 : 1;
	922 : 1;
	923 : 1;
	932 : 1;
	937 : 1;
	974 : 1;
	979 : 1;
	1018 : 1;
	1033 : 2;
	1038 : 1;
	1044 : 1;
	1049 : 3;
	1061 : 2;
	1080 : 3;
	1081 : 1;
	1091 : 1;
	1094 : 1;
	1097 : 1;
	1101 : 13;
	1149 : 1;
	1169 : 3;
	1177 : 1;
	1198 : 1;
	1205 : 1;
	1217 : 1;
	1228 : 1;
	1258 : 1;
	1262 : 2;
	1272 : 1;
	1309 : 1;
	1315 : 2;
	1339 : 1;
	1367 : 1;
	1400 : 1;
	1401 : 5;
	1413 : 1;
	1442 : 1;
	1448 : 2;
	1450 : 1;
	1451 : 1;
	1452 : 1;
	1461 : 1;
	1462 : 2;

Origin 8
	11 : 1;
	65 : 2;
	71 : 1;
	144 : 1;
	165 : 1;
	171 : 2;
	179 : 1;
	182 : 2;
	184 : 2;
	191 : 1;
	195 : 1;
	197 : 3;
	202 : 1;
	203 : 2;
	220 : 1;
	221 : 1;
	222 : 3;
	224 : 1;
	239 : 2;
	242 : 2;
	251 : 1;
	258 : 1;
	266 : 5;
	267 : 1;
	269 : 2;
	272 : 1;
	281 : 2;
	284 : 3;
	288 : 1;
	289 : 1;
	295 : 2;
	296 : 1;
	298 : 2;
	302 : 1;
	308 : 1;
	322 : 3;
	325 : 2;
	326 : 2;
	328 : 5;
	329 : 2;
	342 : 1;
	351 : 2;
	355 : 2;
	394 : 1;
	397 : 1;
	398 : 2;
	421 : 4;
	427 : 2;
	438 : 4;
	456 : 1;
	459 : 1;
	465 : 1;
	469 : 1;
	473 : 2;
	493 : 2;
	495 : 1;
	517 : 2;
	520 : 1;
	524 : 2;
	533 : 1;
	543 : 1;
	562 : 1;
	584 : 3;
	609 : 1;
	612 : 1;
	613 : 1;
	645 : 2;
	647 : 1;
	654 : 2;
	686 : 1;
	700 : 1;
	702 : 2;
	710 : 1;
	714 : 1;
	779 : 1;
	804 : 2;
	816 : 1;
	843 : 1;
	888 : 1;
	899 : 1;
	902 : 1;
	909 : 3;
	924 : 2;
	931 : 1;
	933 : 2;
	937 : 1;
	977 : 1;
	978 : 1;
	997 : 3;
	1001 : 2;
	1002 : 1;
	1011 : 1;
	1014 : 1;
	1045 : 2;
	1046 : 1;
	1072 : 1;
	1094 : 2;
	1101 : 4;
	1104 : 1;
	1118 : 2;
	1141 : 2;
	1168 : 1;
	1169 : 1;
	1190 : 1;
	1193 : 1;
	1210 : 2;
	1234 : 2;
	1258 : 1;
	1313 : 1;
	1319 : 1;
	1332 : 1;
	1366 : 1;
	1367 : 2;
	1371 : 1;
	1378 : 1;
	1401 : 1;
	1404 : 1;
	1419 : 2;
	1442 : 3;
	1443 : 1;
	1451 : 1;
	1454 : 2;

Origin 9
	6 : 1;
	14 : 1;
	29 : 2;
	35 : 13;
	37 : 1;
	46 : 1;
	47 : 1;
	49 : 1;
	53 : 2;
	63 : 2;
	66 : 2;
	89 : 1;
	107 : 2;
	109 : 1;
	137 : 1;
	159 : 1;
	163 : 1;
	165 : 14;
	167 : 2;
	170 : 2;
	171 : 1;
	172 : 2;
	173 : 2;
	174 : 4;
	176 : 3;
	177 : 1;
	179 : 11;
	181 : 1;
	182 : 2;
	183 : 2;
	185 : 1;
	186 : 3;
	189 : 2;
	190 : 2;
	191 : 3;
	192 : 1;
	194 : 2;
	195 : 3;
	197 : 1;
	198 : 10;
	199 : 1;
	200 : 1;
	201 : 1;
	203 : 2;
	207 : 1;
	208 : 3;
	209 : 7;
	217 : 1;
	222 : 4;
	223 : 6;
	224 : 4;
	225 : 1;
	232 : 2;
	237 : 2;
	239 : 3;
	241 : 4;
	242 : 6;
	243 : 3;
	246 : 1;
	247 : 8;
	248 : 15;
	249 : 2;
	250 : 9;
	251 : 8;
	252 : 5;
	253 : 1;
	254 : 9;
	255 : 2;
	257 : 1;
	258 : 2;
	263 : 5;
	264 : 5;
	265 : 1;
	266 : 22;
	267 : 2;
	268 : 5;
	269 : 3;
	272 : 2;
	273 : 1;
	278 : 1;
	280 : 3;
	282 : 2;
	284 : 4;
	285 : 3;
	287 : 1;
	288 : 2;
	289 : 3;
	290 : 4;
	291 : 2;
	292 : 1;
	295 : 3;
	299 : 3;
	300 : 1;
	301 : 7;
	302 : 4;
	303 : 6;
	304 : 1;
	305 : 5;
	307 : 3;
	308 : 5;
	309 : 3;
	312 : 1;
	313 : 1;
	314 : 2;
	316 : 4;
	321 : 3;
	326 : 2;
	327 : 4;
	328 : 2;
	329 : 8;
	333 : 4;
	337 : 2;
	339 : 1;
	340 : 3;
	341 : 5;
	344 : 2;
	345 : 4;
	347 : 1;
	351 : 1;
	354 : 1;
	364 : 2;
	365 : 1;
	367 : 6;
	368 : 4;
	370 : 1;
	371 : 4;
	376 : 3;
	377 : 1;
	379 : 2;
	380 : 4;
	389 : 3;
	394 : 1;
	397 : 3;
	398 : 1;
	405 : 4;
	406 : 1;
	409 : 2;
	411 : 4;
	417 : 1;
	424 : 2;
	425 : 3;
	426 : 1;
	427 : 3;
	430 : 1;
	431 : 5;
	432 : 1;
	435 : 1;
	438 : 1;
	440 : 1;
	445 : 3;
	451 : 1;
	455 : 1;
	459 : 1;
	468 : 2;
	472 : 1;
	475 : 2;
	496 : 1;
	501 : 2;
	510 : 1;
	511 : 2;
	521 : 2;
	528 : 1;
	531 : 1;
	533 : 1;
	542 : 1;
	548 : 1;
	552 : 1;
	558 : 1;
	575 : 8;
	580 : 1;
	589 : 11;
	594 : 2;
	606 : 3;
	607 : 5;
	618 : 1;
	623 : 2;
	636 : 1;
	641 : 1;
	643 : 4;
	660 : 1;
	665 : 1;
	667 : 1;
	674 : 2;
	680 : 1;
	681 : 1;
	698 : 4;
	699 : 3;
	700 : 6;
	701 : 7;
	702 : 5;
	703 : 3;
	708 : 1;
	709 : 1;
	710 : 1;
	711 : 5;
	714 : 2;
	742 : 5;
	828 : 1;
	843 : 7;
	854 : 1;
	887 : 1;
	908 : 1;
	911 : 1;
	922 : 1;
	928 : 3;
	931 : 1;
	933 : 3;
	934 : 5;
	937 : 6;
	938 : 3;
	972 : 3;
	973 : 1;
	977 : 1;
	978 : 1;
	979 : 1;
	984 : 1;
	1003 : 2;
	1014 : 2;
	1020 : 5;
	1023 : 1;
	1036 : 4;
	1041 : 3;
	1044 : 1;
	1045 : 5;
	1046 : 1;
	1052 : 1;
	1053 : 2;
	1058 : 2;
	1060 : 4;
	1061 : 3;
	1081 : 1;
	1088 : 1;
	1089 : 1;
	1101 : 20;
	1103 : 1;
	1104 : 1;
	1108 : 1;
	1113 : 1;
	1119 : 1;
	1121 : 3;
	1125 : 1;
	1148 : 5;
	1149 : 4;
	1161 : 1;
	1167 : 1;
	1169 : 1;
	1170 : 1;
	1180 : 2;
	1222 : 1;
	1234 : 1;
	1243 : 2;
	1252 : 3;
	1254 : 1;
	1258 : 6;
	1264 : 1;
	1272 : 2;
	1288 : 1;
	1293 : 2;
	1300 : 1;
	1303 : 1;
	1307 : 1;
	1367 : 4;
	1370 : 1;
	1381 : 1;
	1400 : 1;
	1401 : 9;
	1402 : 2;
	1403 : 1;
	1404 : 5;
	1429 : 1;
	1438 : 1;
	1442 : 3;
	1447 : 1;
	1448 : 2;
	1450 : 1;
	1451 : 3;
	1453 : 3;
	1458 : 2;
	1462 : 1;

Origin 10
	11 : 2;
	20 : 1;
	92 : 1;
	97 : 2;
	123 : 2;
	131 : 1;
	163 : 1;
	165 : 3;
	191 : 1;
	199 : 1;
	208 : 1;
	228 : 2;
	235 : 1;
	264 : 1;
	270 : 1;
	274 : 1;
	288 : 1;
	294 : 1;
	297 : 1;
	302 : 3;
	305 : 4;
	315 : 1;
	325 : 2;
	330 : 1;
	341 : 2;
	342 : 1;
	347 : 2;
	371 : 2;
	374 : 1;
	427 : 1;
	428 : 3;
	436 : 1;
	491 : 1;
	492 : 4;
	509 : 1;
	516 : 1;
	582 : 1;
	609 : 1;
	631 : 1;
	680 : 1;
	694 : 2;
	698 : 1;
	699 : 1;
	704 : 1;
	711 : 3;
	735 : 1;
	737 : 1;
	788 : 1;
	855 : 3;
	862 : 1;
	898 : 1;
	908 : 1;
	918 : 1;
	940 : 2;
	957 : 1;
	979 : 1;
	1020 : 2;
	1022 : 2;
	1024 : 1;
	1045 : 1;
	1094 : 1;
	1101 : 4;
	1123 : 1;
	1172 : 2;
	1200 : 1;
	1258 : 1;
	1312 : 1;
	1313 : 1;
	1317 : 1;
	1326 : 1;
	1384 : 1;
	1404 : 1;
	1427 : 1;

Origin 11
	22 : 1;
	43 : 1;
	47 : 2;
	121 : 1;
	164 : 2;
	170 : 2;
	176 : 2;
	177 : 1;
	198 : 1;
	199 : 2;
	207 : 1;
	224 : 3;
	247 : 1;
	250 : 1;
	251 : 2;
	264 : 1;
	265 : 1;
	268 : 3;
	271 : 1;
	294 : 1;
	295 : 2;
	302 : 2;
	305 : 1;
	313 : 4;
	328 : 1;
	345 : 1;
	360 : 1;
	365 : 1;
	379 : 2;
	405 : 1;
	411 : 1;
	475 : 4;
	476 : 1;
	518 : 1;
	529 : 1;
	604 : 1;
	607 : 1;
	642 : 2;
	644 : 1;
	656 : 2;
	659 : 1;
	677 : 1;
	685 : 1;
	687 : 2;
	704 : 1;
	711 : 1;
	730 : 1;
	742 : 1;
	765 : 1;
	843 : 2;
	846 : 2;
	934 : 2;
	937 : 4;
	939 : 1;
	977 : 2;
	1012 : 2;
	1036 : 1;
	1066 : 1;
	1083 : 1;
	1100 : 1;
	1142 : 1;
	1145 : 2;
	1154 : 2;
	1173 : 1;
	1220 : 1;
	1221 : 1;
	1226 : 1;
	1258 : 1;
	1272 : 1;
	1284 : 1;
	1331 : 1;
	1346 : 2;
	1381 : 2;
	1384 : 1;
	1390 : 1;
	1401 : 1;
	1410 : 2;
	1412 : 1;
	1439 : 1;
	1462 : 3;

Origin 12
	8 : 1;
	21 : 1;
	22 : 1;
	31 : 1;
	41 : 1;
	42 : 1;
	69 : 1;
	122 : 1;
	158 : 2;
	173 : 1;
	180 : 2;
	182 : 1;
	197 : 1;
	209 : 1;
	222 : 1;
	241 : 2;
	242 : 1;
	250 : 2;
	255 : 1;
	263 : 1;
	266 : 4;
	269 : 2;
	279 : 3;
	282 : 1;
	283 : 2;
	285 : 1;
	287 : 1;
	291 : 3;
	295 : 2;
	297 : 1;
	299 : 1;
	300 : 2;
	302 : 1;
	307 : 1;
	310 : 3;
	313 : 1;
	321 : 1;
	322 : 2;
	328 : 4;
	337 : 6;
	339 : 4;
	367 : 3;
	368 : 1;
	369 : 1;
	377 : 2;
	397 : 1;
	398 : 1;
	409 : 1;
	410 : 1;
	421 : 1;
	425 : 1;
	427 : 2;
	429 : 1;
	430 : 1;
	445 : 1;
	452 : 1;
	454 : 3;
	474 : 2;
	476 : 1;
	492 : 1;
	554 : 5;
	562 : 1;
	566 : 5;
	604 : 1;
	633 : 1;
	639 : 1;
	647 : 2;
	702 : 2;
	714 : 1;
	722 : 1;
	758 : 2;
	776 : 1;
	805 : 1;
	817 : 1;
	850 : 2;
	898 : 1;
	917 : 2;
	932 : 1;
	951 : 1;
	953 : 1;
	1018 : 1;
	1026 : 1;
	1027 : 1;
	1037 : 2;
	1044 : 2;
	1051 : 1;
	1060 : 2;
	1101 : 2;
	1104 : 1;
	1117 : 1;
	1119 : 2;
	1130 : 1;
	1149 : 2;
	1170 : 1;
	1198 : 2;
	1204 : 1;
	1210 : 1;
	1215 : 1;
	1236 : 2;
	1242 : 1;
	1258 : 3;
	1259 : 3;
	1266 : 1;
	1269 : 2;
	1274 : 1;
	1344 : 1;
	1373 : 4;
	1386 : 1;
	1389 : 1;
	1390 : 1;
	1400 : 4;
	1401 : 2;
	1403 : 1;
	1436 : 2;
	1439 : 1;
	1461 : 2;

Origin 13
	48 : 2;
	64 : 1;
	88 : 4;
	89 : 5;
	136 : 2;
	208 : 1;
	209 : 2;
	210 : 13;
	211 : 3;
	217 : 2;
	218 : 2;
	223 : 1;
	224 : 2;
	226 : 4;
	232 : 8;
	238 : 1;
	242 : 2;
	248 : 3;
	249 : 1;
	250 : 8;
	252 : 3;
	254 : 3;
	256 : 3;
	265 : 2;
	266 : 37;
	267 : 158;
	268 : 2;
	269 : 2;
	274 : 1;
	275 : 1;
	279 : 3;
	280 : 8;
	281 : 3;
	283 : 59;
	284 : 2;
	291 : 1;
	294 : 4;
	296 : 1;
	297 : 4;
	298 : 8;
	300 : 3;
	301 : 4;
	302 : 6;
	303 : 7;
	305 : 11;
	308 : 4;
	309 : 16;
	313 : 1;
	314 : 4;
	315 : 1;
	321 : 5;
	322 : 1;
	327 : 2;
	328 : 9;
	329 : 15;
	337 : 12;
	338 : 2;
	340 : 4;
	341 : 15;
	342 : 2;
	345 : 4;
	346 : 1;
	348 : 3;
	350 : 2;
	365 : 1;
	367 : 10;
	368 : 18;
	370 : 1;
	371 : 1;
	377 : 1;
	379 : 2;
	381 : 1;
	382 : 2;
	394 : 4;
	395 : 1;
	396 : 1;
	398 : 2;
	400 : 1;
	407 : 9;
	409 : 3;
	410 : 2;
	417 : 2;
	420 : 5;
	421 : 1;
	423 : 2;
	424 : 1;
	426 : 11;
	428 : 1;
	430 : 2;
	431 : 10;
	432 : 1;
	434 : 1;
	438 : 1;
	442 : 2;
	444 : 3;
	447 : 1;
	456 : 1;
	477 : 2;
	492 : 2;
	501 : 1;
	515 : 1;
	516 : 1;
	530 : 2;
	541 : 1;
	544 : 1;
	583 : 1;
	586 : 3;
	606 : 1;
	611 : 1;
	627 : 1;
	649 : 1;
	660 : 1;
	666 : 1;
	667 : 1;
	698 : 2;
	699 : 1;
	719 : 1;
	758 : 1;
	778 : 2;
	791 : 2;
	821 : 2;
	856 : 2;
	860 : 4;
	876 : 1;
	889 : 1;
	903 : 3;
	904 : 1;
	936 : 1;
	1077 : 1;
	1103 : 1;
	1114 : 2;
	1142 : 1;
	1145 : 1;
	1147 : 1;
	1148 : 1;
	1174 : 1;
	1213 : 1;
	1222 : 3;
	1225 : 2;
	1243 : 1;
	1251 : 1;
	1254 : 1;
	1255 : 1;
	1257 : 2;
	1258 : 12;
	1259 : 4;
	1261 : 1;
	1264 : 1;
	1269 : 2;
	1272 : 3;
	1273 : 3;
	1283 : 2;
	1287 : 1;
	1295 : 2;
	1319 : 1;
	1324 : 1;
	1331 : 1;
	1342 : 1;
	1367 : 2;
	1396 : 1;
	1401 : 4;
	1411 : 2;
	1417 : 1;
	1430 : 2;
	1458 : 1;
	1462 : 5;

Origin 14
	9 : 1;
	16 : 1;
	21 : 2;
	35 : 47;
	49 : 2;
	50 : 1;
	51 : 1;
	77 : 2;
	79 : 1;
	84 : 1;
	89 : 1;
	97 : 7;
	99 : 3;
	105 : 2;
	129 : 2;
	167 : 1;
	173 : 1;
	174 : 1;
	176 : 1;
	178 : 4;
	192 : 2;
	197 : 1;
	207 : 1;
	208 : 2;
	210 : 1;
	223 : 1;
	232 : 2;
	242 : 3;
	247 : 34;
	248 : 1;
	250 : 1;
	254 : 4;
	255 : 3;
	257 : 2;
	263 : 3;
	265 : 4;
	266 : 2;
	267 : 31;
	268 : 2;
	269 : 2;
	271 : 2;
	272 : 3;
	274 : 2;
	277 : 2;
	280 : 2;
	281 : 5;
	283 : 11;
	285 : 8;
	288 : 1;
	290 : 5;
	293 : 1;
	294 : 1;
	295 : 9;
	296 : 1;
	297 : 12;
	299 : 3;
	300 : 2;
	301 : 7;
	302 : 9;
	303 : 3;
	305 : 15;
	309 : 1;
	310 : 1;
	312 : 2;
	314 : 20;
	315 : 1;
	316 : 2;
	320 : 1;
	321 : 5;
	324 : 1;
	325 : 3;
	327 : 4;
	328 : 21;
	329 : 27;
	332 : 4;
	333 : 1;
	335 : 3;
	336 : 10;
	337 : 6;
	338 : 15;
	340 : 4;
	341 : 11;
	342 : 16;
	343 : 3;
	345 : 16;
	346 : 1;
	348 : 1;
	349 : 4;
	350 : 3;
	352 : 1;
	364 : 3;
	367 : 18;
	368 : 8;
	369 : 11;
	370 : 6;
	371 : 10;
	372 : 1;
	374 : 5;
	376 : 1;
	377 : 7;
	379 : 7;
	380 : 18;
	381 : 1;
	382 : 6;
	385 : 1;
	390 : 10;
	392 : 6;
	394 : 3;
	397 : 9;
	398 : 4;
	405 : 2;
	407 : 2;
	411 : 3;
	414 : 1;
	420 : 4;
	423 : 1;
	425 : 3;
	426 : 9;
	427 : 1;
	428 : 7;
	429 : 1;
	430 : 7;
	433 : 5;
	445 : 1;
	446 : 1;
	458 : 1;
	459 : 12;
	464 : 1;
	468 : 1;
	472 : 2;
	477 : 1;
	488 : 1;
	492 : 1;
	493 : 4;
	502 : 1;
	506 : 1;
	507 : 3;
	511 : 13;
	521 : 7;
	523 : 1;
	528 : 3;
	529 : 5;
	530 : 1;
	531 : 5;
	533 : 2;
	540 : 1;
	541 : 7;
	542 : 3;
	543 : 1;
	545 : 1;
	547 : 1;
	562 : 1;
	564 : 1;
	565 : 2;
	576 : 1;
	579 : 1;
	583 : 1;
	595 : 2;
	611 : 3;
	641 : 9;
	660 : 2;
	666 : 1;
	668 : 2;
	670 : 3;
	674 : 2;
	678 : 1;
	689 : 1;
	696 : 1;
	700 : 2;
	702 : 1;
	820 : 1;
	829 : 1;
	889 : 1;
	902 : 1;
	931 : 2;
	939 : 2;
	972 : 2;
	982 : 1;
	997 : 2;
	1030 : 1;
	1053 : 1;
	1089 : 1;
	1094 : 2;
	1101 : 1;
	1103 : 2;
	1114 : 2;
	1130 : 1;
	1175 : 2;
	1179 : 1;
	1186 : 1;
	1196 : 1;
	1198 : 14;
	1204 : 4;
	1208 : 2;
	1211 : 3;
	1212 : 2;
	1213 : 12;
	1214 : 3;
	1216 : 3;
	1217 : 1;
	1220 : 3;
	1222 : 26;
	1223 : 3;
	1225 : 4;
	1226 : 2;
	1228 : 4;
	1232 : 3;
	1234 : 2;
	1240 : 2;
	1243 : 4;
	1248 : 3;
	1249 : 2;
	1254 : 1;
	1258 : 19;
	1259 : 2;
	1261 : 1;
	1262 : 1;
	1270 : 2;
	1272 : 4;
	1273 : 1;
	1274 : 1;
	1344 : 2;
	1346 : 1;
	1365 : 2;
	1367 : 1;
	1368 : 1;
	1373 : 1;
	1390 : 3;
	1397 : 1;
	1401 : 3;
	1416 : 2;
	1418 : 1;
	1424 : 3;
	1428 : 1;
	1434 : 1;
	1436 : 1;
	1439 : 4;
	1440 : 1;
	1456 : 2;
	1457 : 1;
	1462 : 24;

Origin 15
	3 : 1;
	18 : 1;
	35 : 25;
	37 : 1;
	41 : 5;
	44 : 3;
	47 : 3;
	49 : 1;
	61 : 1;
	70 : 1;
	72 : 2;
	86 : 6;
	88 : 2;
	89 : 4;
	97 : 15;
	107 : 1;
	110 : 2;
	121 : 2;
	128 : 13;
	129 : 2;
	135 : 8;
	138 : 2;
	144 : 1;
	150 : 3;
	157 : 3;
	164 : 2;
	165 : 2;
	167 : 2;
	169 : 1;
	170 : 2;
	176 : 1;
	177 : 3;
	178 : 1;
	189 : 1;
	191 : 5;
	195 : 2;
	197 : 1;
	198 : 5;
	200 : 2;
	202 : 1;
	205 : 1;
	207 : 2;
	208 : 2;
	209 : 1;
	210 : 2;
	218 : 1;
	219 : 1;
	220 : 1;
	221 : 3;
	222 : 10;
	223 : 2;
	224 : 7;
	227 : 7;
	232 : 4;
	236 : 5;
	238 : 3;
	239 : 3;
	242 : 17;
	247 : 28;
	248 : 11;
	249 : 5;
	250 : 22;
	251 : 14;
	252 : 7;
	254 : 12;
	255 : 12;
	256 : 4;
	257 : 1;
	258 : 3;
	260 : 3;
	263 : 8;
	264 : 64;
	265 : 21;
	266 : 113;
	267 : 47;
	268 : 10;
	269 : 4;
	270 : 3;
	271 : 4;
	272 : 5;
	273 : 1;
	274 : 5;
	275 : 2;
	276 : 1;
	279 : 1;
	280 : 9;
	281 : 29;
	282 : 26;
	283 : 36;
	284 : 6;
	285 : 40;
	286 : 1;
	287 : 4;
	288 : 2;
	289 : 7;
	290 : 7;
	291 : 3;
	292 : 3;
	293 : 3;
	294 : 8;
	295 : 26;
	296 : 2;
	297 : 16;
	298 : 35;
	299 : 4;
	300 : 15;
	301 : 26;
	302 : 48;
	303 : 23;
	304 : 3;
	305 : 16;
	307 : 14;
	308 : 26;
	309 : 36;
	310 : 1;
	313 : 11;
	314 : 53;
	315 : 61;
	316 : 2;
	319 : 1;
	320 : 1;
	321 : 14;
	322 : 20;
	323 : 1;
	324 : 4;
	325 : 11;
	326 : 14;
	327 : 21;
	328 : 35;
	329 : 56;
	331 : 2;
	333 : 10;
	336 : 12;
	337 : 18;
	338 : 19;
	339 : 29;
	340 : 10;
	341 : 35;
	342 : 78;
	343 : 18;
	344 : 4;
	345 : 5;
	346 : 1;
	347 : 3;
	348 : 5;
	349 : 4;
	350 : 3;
	351 : 4;
	352 : 3;
	354 : 1;
	361 : 3;
	363 : 4;
	366 : 3;
	367 : 45;
	368 : 51;
	369 : 34;
	370 : 8;
	371 : 45;
	373 : 1;
	375 : 6;
	376 : 2;
	377 : 25;
	379 : 17;
	380 : 2;
	381 : 27;
	382 : 23;
	387 : 1;
	389 : 2;
	390 : 15;
	393 : 40;
	394 : 33;
	395 : 13;
	396 : 8;
	397 : 11;
	398 : 27;
	399 : 3;
	400 : 2;
	401 : 7;
	403 : 4;
	404 : 1;
	405 : 8;
	407 : 2;
	408 : 5;
	409 : 10;
	410 : 13;
	411 : 17;
	421 : 7;
	423 : 1;
	424 : 2;
	425 : 38;
	426 : 20;
	427 : 10;
	428 : 27;
	429 : 19;
	430 : 42;
	431 : 12;
	432 : 26;
	433 : 17;
	435 : 10;
	436 : 7;
	438 : 8;
	440 : 1;
	445 : 2;
	446 : 8;
	447 : 5;
	450 : 4;
	452 : 1;
	454 : 6;
	455 : 2;
	456 : 3;
	460 : 1;
	462 : 2;
	464 : 1;
	468 : 2;
	469 : 1;
	470 : 4;
	471 : 1;
	472 : 3;
	473 : 1;
	475 : 3;
	476 : 2;
	477 : 4;
	478 : 2;
	480 : 1;
	481 : 3;
	483 : 13;
	486 : 5;
	488 : 2;
	489 : 1;
	490 : 3;
	491 : 3;
	492 : 6;
	493 : 8;
	497 : 1;
	498 : 6;
	499 : 1;
	500 : 2;
	501 : 3;
	502 : 2;
	503 : 1;
	506 : 2;
	507 : 6;
	508 : 20;
	510 : 1;
	511 : 93;
	514 : 3;
	515 : 18;
	516 : 52;
	517 : 5;
	519 : 2;
	520 : 1;
	522 : 4;
	523 : 4;
	524 : 11;
	527 : 10;
	528 : 14;
	529 : 14;
	530 : 9;
	531 : 23;
	532 : 1;
	533 : 8;
	536 : 2;
	537 : 4;
	539 : 1;
	540 : 2;
	541 : 39;
	542 : 6;
	543 : 21;
	545 : 5;
	546 : 2;
	547 : 4;
	548 : 5;
	549 : 1;
	552 : 1;
	555 : 1;
	556 : 1;
	559 : 1;
	560 : 1;
	562 : 3;
	563 : 1;
	564 : 4;
	565 : 2;
	566 : 2;
	567 : 1;
	571 : 2;
	572 : 2;
	575 : 2;
	578 : 4;
	584 : 2;
	585 : 1;
	586 : 2;
	590 : 1;
	606 : 1;
	607 : 1;
	611 : 3;
	613 : 2;
	633 : 1;
	638 : 1;
	641 : 5;
	652 : 1;
	655 : 1;
	659 : 1;
	661 : 4;
	663 : 1;
	665 : 1;
	666 : 1;
	667 : 5;
	669 : 3;
	670 : 4;
	674 : 5;
	675 : 3;
	676 : 1;
	702 : 1;
	706 : 2;
	709 : 1;
	710 : 1;
	713 : 2;
	762 : 1;
	767 : 1;
	813 : 1;
	824 : 1;
	829 : 1;
	836 : 1;
	838 : 3;
	843 : 2;
	864 : 1;
	867 : 2;
	878 : 1;
	890 : 1;
	898 : 7;
	902 : 1;
	909 : 4;
	921 : 2;
	922 : 1;
	928 : 1;
	933 : 2;
	952 : 2;
	961 : 1;
	977 : 2;
	987 : 2;
	1003 : 1;
	1018 : 2;
	1049 : 1;
	1060 : 1;
	1062 : 1;
	1101 : 1;
	1120 : 2;
	1135 : 1;
	1148 : 9;
	1162 : 1;
	1168 : 1;
	1175 : 1;
	1177 : 1;
	1178 : 5;
	1179 : 1;
	1183 : 1;
	1185 : 4;
	1187 : 3;
	1190 : 1;
	1195 : 2;
	1196 : 3;
	1197 : 1;
	1198 : 57;
	1199 : 3;
	1200 : 9;
	1202 : 1;
	1204 : 3;
	1205 : 1;
	1206 : 2;
	1207 : 1;
	1208 : 2;
	1211 : 15;
	1212 : 6;
	1213 : 59;
	1214 : 15;
	1215 : 2;
	1216 : 4;
	1217 : 6;
	1218 : 7;
	1219 : 1;
	1220 : 13;
	1221 : 6;
	1222 : 107;
	1223 : 12;
	1225 : 3;
	1226 : 8;
	1228 : 5;
	1233 : 2;
	1234 : 2;
	1235 : 4;
	1237 : 2;
	1238 : 4;
	1240 : 2;
	1241 : 1;
	1243 : 8;
	1244 : 2;
	1247 : 3;
	1248 : 6;
	1249 : 11;
	1250 : 1;
	1251 : 4;
	1252 : 2;
	1253 : 1;
	1254 : 6;
	1255 : 2;
	1256 : 4;
	1258 : 69;
	1259 : 15;
	1260 : 1;
	1261 : 3;
	1263 : 4;
	1264 : 3;
	1266 : 5;
	1267 : 1;
	1268 : 2;
	1269 : 6;
	1270 : 1;
	1271 : 1;
	1272 : 15;
	1273 : 4;
	1274 : 8;
	1275 : 2;
	1294 : 2;
	1343 : 1;
	1367 : 3;
	1368 : 2;
	1371 : 10;
	1385 : 1;
	1386 : 3;
	1388 : 2;
	1390 : 6;
	1396 : 1;
	1397 : 9;
	1398 : 2;
	1400 : 2;
	1401 : 13;
	1402 : 1;
	1403 : 2;
	1404 : 1;
	1406 : 1;
	1411 : 16;
	1412 : 2;
	1416 : 1;
	1418 : 2;
	1421 : 1;
	1423 : 1;
	1424 : 2;
	1428 : 2;
	1430 : 3;
	1432 : 1;
	1436 : 3;
	1437 : 4;
	1438 : 1;
	1439 : 8;
	1447 : 2;
	1449 : 1;
	1450 : 2;
	1453 : 2;
	1454 : 1;
	1457 : 14;
	1458 : 24;
	1460 : 1;
	1462 : 45;

Origin 16
	20 : 2;
	35 : 1;
	115 : 1;
	124 : 1;
	126 : 1;
	128 : 1;
	134 : 2;
	138 : 2;
	197 : 2;
	210 : 1;
	222 : 3;
	237 : 1;
	250 : 1;
	263 : 1;
	265 : 1;
	266 : 2;
	277 : 1;
	283 : 1;
	288 : 1;
	289 : 3;
	292 : 3;
	293 : 1;
	298 : 2;
	303 : 1;
	305 : 4;
	308 : 1;
	312 : 1;
	313 : 1;
	314 : 1;
	315 : 2;
	319 : 1;
	324 : 3;
	338 : 1;
	340 : 4;
	348 : 1;
	350 : 1;
	352 : 1;
	367 : 1;
	370 : 7;
	374 : 1;
	379 : 2;
	391 : 1;
	395 : 5;
	405 : 2;
	407 : 1;
	426 : 2;
	429 : 2;
	432 : 5;
	442 : 1;
	443 : 2;
	457 : 2;
	459 : 1;
	468 : 1;
	469 : 1;
	470 : 1;
	472 : 1;
	491 : 1;
	497 : 2;
	506 : 1;
	508 : 1;
	529 : 3;
	530 : 2;
	543 : 2;
	545 : 1;
	566 : 1;
	571 : 1;
	584 : 2;
	590 : 1;
	600 : 1;
	601 : 1;
	604 : 2;
	646 : 1;
	655 : 2;
	669 : 2;
	675 : 1;
	711 : 1;
	738 : 1;
	741 : 1;
	760 : 1;
	798 : 2;
	801 : 1;
	814 : 1;
	819 : 1;
	840 : 2;
	859 : 2;
	904 : 1;
	908 : 1;
	927 : 1;
	973 : 1;
	1019 : 1;
	1020 : 1;