<NUMBER OF ZONES> 1462
<NUMBER OF NODES> 13603
<FIRST THRU NODE> 1463
<NUMBER OF LINKS> 35940
<END OF METADATA>


~Tail, Head, Capacity (vph), Length (ft), Free-flow time (min), alpha, beta, speed (mph), toll, type
12983	50	400000.0	2217.6	0.42	0.15	4	60.0	0	100
10103	50	400000.0	5544.0	1.05	0.15	4	60.0	0	100
10100	50	400000.0	1584.0	0.3	0.15	4	60.0	0	100
10101	50	400000.0	1161.6	0.21999999999999997	0.15	4	60.0	0	100
10294	51	400000.0	3537.6	0.6699999999999999	0.15	4	60.0	0	100
10099	51	400000.0	1848.0	0.35	0.15	4	60.0	0	100
11727	51	400000.0	2956.8	0.56	0.15	4	60.0	0	100
10291	51	400000.0	3854.4	0.73	0.15	4	60.0	0	100
10122	52	400000.0	1584.0	0.3	0.15	4	60.0	0	100
10109	52	400000.0	2270.4	0.43	0.15	4	60.0	0	100
11351	52	400000.0	1584.0	0.3	0.15	4	60.0	0	100
10224	52	400000.0	1953.6	0.36999999999999994	0.15	4	60.0	0	100
9422	53	800000.0	0.0	0.0	0.15	4	60.0	0	100
3235	53	400000.0	14256.0	2.7	0.15	4	60.0	0	100
3329	54	400000.0	6652.8	1.26	0.15	4	60.0	0	100
3234	54	400000.0	7444.8	1.4100000000000001	0.15	4	60.0	0	100
3320	54	400000.0	6441.6	1.22	0.15	4	60.0	0	100
3328	54	400000.0	9715.2	1.84	0.15	4	60.0	0	100
3327	55	400000.0	7603.2	1.44	0.15	4	60.0	0	100
3320	55	400000.0	12144.0	2.3	0.15	4	60.0	0	100
12963	55	400000.0	6864.0	1.3	0.15	4	60.0	0	100
3324	55	400000.0	5966.4	1.13	0.15	4	60.0	0	100
10244	56	400000.0	3643.2	0.69	0.15	4	60.0	0	100
9893	56	400000.0	1584.0	0.3	0.15	4	60.0	0	100
11725	56	400000.0	3062.4	0.5800000000000001	0.15	4	60.0	0	100
9890	56	400000.0	1056.0	0.2	0.15	4	60.0	0	100
3200	57	800000.0	0.0	0.0	0.15	4	60.0	0	100
3207	58	800000.0	1531.2	0.29000000000000004	0.15	4	60.0	0	100
3214	58	800000.0	52.8	0.01	0.15	4	60.0	0	100
3213	59	400000.0	2956.8	0.56	0.15	4	60.0	0	100
3211	59	400000.0	3696.0	0.7	0.15	4	60.0	0	100
3209	59	400000.0	3432.0	0.65	0.15	4	60.0	0	100
3210	59	400000.0	3696.0	0.7	0.15	4	60.0	0	100
3203	60	400000.0	10084.8	1.91	0.15	4	60.0	0	100
3955	60	400000.0	5808.0	1.1	0.15	4	60.0	0	100
12609	60	400000.0	5491.2	1.04	0.15	4	60.0	0	100
12586	60	400000.0	6019.2	1.14	0.15	4	60.0	0	100
3237	61	400000.0	9768.0	1.85	0.15	4	60.0	0	100
3230	61	400000.0	0.0	0.0	0.15	4	60.0	0	100
11828	61	400000.0	10348.8	1.96	0.15	4	60.0	0	100
3231	61	400000.0	8606.4	1.63	0.15	4	60.0	0	100
2586	62	400000.0	3643.2	0.69	0.15	4	60.0	0	100
12959	62	400000.0	13569.6	2.5700000000000003	0.15	4	60.0	0	100
3316	62	400000.0	3590.4	0.68	0.15	4	60.0	0	100
12743	62	400000.0	3854.4	0.73	0.15	4	60.0	0	100
8538	63	400000.0	1900.8	0.36	0.15	4	60.0	0	100
10057	63	400000.0	2640.0	0.5	0.15	4	60.0	0	100
3324	63	400000.0	6019.2	1.14	0.15	4	60.0	0	100
8537	63	400000.0	2640.0	0.5	0.15	4	60.0	0	100
11857	64	400000.0	10876.8	2.06	0.15	4	60.0	0	100
2594	64	800000.0	0.0	0.0	0.15	4	60.0	0	100
11982	64	400000.0	1108.8	0.21	0.15	4	60.0	0	100
3953	65	400000.0	7656.0	1.45	0.15	4	60.0	0	100
3979	65	400000.0	9609.6	1.82	0.15	4	60.0	0	100
2708	66	400000.0	3168.0	0.6	0.15	4	60.0	0	100
5618	66	400000.0	5596.8	1.06	0.15	4	60.0	0	100
2707	66	400000.0	3748.8	0.7100000000000001	0.15	4	60.0	0	100
2702	66	400000.0	3379.2	0.64	0.15	4	60.0	0	100
2693	67	400000.0	4540.8	0.86	0.15	4	60.0	0	100
2690	67	400000.0	6283.2	1.19	0.15	4	60.0	0	100
2691	67	400000.0	5808.0	1.1	0.15	4	60.0	0	100
2689	67	400000.0	4646.4	0.8799999999999999	0.15	4	60.0	0	100
2700	68	400000.0	3009.6	0.57	0.15	4	60.0	0	100
12587	68	400000.0	15523.2	2.94	0.15	4	60.0	0	100
12700	68	400000.0	3009.6	0.57	0.15	4	60.0	0	100
2696	68	400000.0	2692.8	0.51	0.15	4	60.0	0	100
5615	69	800000.0	0.0	0.0	0.15	4	60.0	0	100
11827	69	400000.0	6072.0	1.15	0.15	4	60.0	0	100
3311	69	400000.0	9926.4	1.88	0.15	4	60.0	0	100
5614	70	400000.0	2956.8	0.56	0.15	4	60.0	0	100
5613	70	800000.0	0.0	0.0	0.15	4	60.0	0	100
11824	70	400000.0	10665.6	2.02	0.15	4	60.0	0	100
2588	71	400000.0	5227.2	0.99	0.15	4	60.0	0	100
3318	71	400000.0	2904.0	0.55	0.15	4	60.0	0	100
3308	71	400000.0	6177.6	1.1700000000000002	0.15	4	60.0	0	100
3317	71	400000.0	2904.0	0.55	0.15	4	60.0	0	100
4827	72	400000.0	5649.6	1.07	0.15	4	60.0	0	100
4824	72	400000.0	2956.8	0.56	0.15	4	60.0	0	100
4821	72	400000.0	6336.0	1.2	0.15	4	60.0	0	100
4822	72	400000.0	2956.8	0.56	0.15	4	60.0	0	100
4822	73	400000.0	5808.0	1.1	0.15	4	60.0	0	100
3317	73	400000.0	5227.2	0.99	0.15	4	60.0	0	100
3305	73	400000.0	10665.6	2.02	0.15	4	60.0	0	100
4821	73	400000.0	5227.2	0.99	0.15	4	60.0	0	100
5635	74	400000.0	7286.4	1.38	0.15	4	60.0	0	100
4011	74	400000.0	4118.4	0.7799999999999999	0.15	4	60.0	0	100
4016	74	400000.0	5808.0	1.1	0.15	4	60.0	0	100
5634	74	400000.0	4118.4	0.7799999999999999	0.15	4	60.0	0	100
5627	75	400000.0	1478.4	0.28	0.15	4	60.0	0	100
2706	75	400000.0	2323.2	0.43999999999999995	0.15	4	60.0	0	100
5629	75	400000.0	3220.8	0.61	0.15	4	60.0	0	100
5609	76	400000.0	5913.6	1.12	0.15	4	60.0	0	100
5624	76	400000.0	3801.6	0.72	0.15	4	60.0	0	100
13213	76	400000.0	1161.6	0.21999999999999997	0.15	4	60.0	0	100
5607	76	400000.0	2956.8	0.56	0.15	4	60.0	0	100
13433	77	400000.0	3748.8	0.7100000000000001	0.15	4	60.0	0	100
3307	77	400000.0	2059.2	0.38999999999999996	0.15	4	60.0	0	100
5608	77	400000.0	7392.0	1.4	0.15	4	60.0	0	100
3304	77	400000.0	7814.4	1.4799999999999998	0.15	4	60.0	0	100
12741	78	400000.0	6441.6	1.22	0.15	4	60.0	0	100
5609	78	400000.0	8395.2	1.59	0.15	4	60.0	0	100
4698	78	400000.0	6441.6	1.22	0.15	4	60.0	0	100
4697	78	400000.0	5174.4	0.98	0.15	4	60.0	0	100
12302	79	400000.0	3220.8	0.61	0.15	4	60.0	0	100
9984	79	400000.0	5860.8	1.11	0.15	4	60.0	0	100
10002	79	400000.0	3907.2	0.7399999999999999	0.15	4	60.0	0	100
12427	79	400000.0	1584.0	0.3	0.15	4	60.0	0	100
3317	80	400000.0	11457.6	2.17	0.15	4	60.0	0	100
3304	80	400000.0	2798.4	0.53	0.15	4	60.0	0	100
12741	80	400000.0	4910.4	0.9299999999999999	0.15	4	60.0	0	100
3305	80	400000.0	2798.4	0.53	0.15	4	60.0	0	100
3302	81	1200000.0	0.0	0.0	0.15	4	60.0	0	100
13460	81	400000.0	2428.8	0.46	0.15	4	60.0	0	100
5526	82	400000.0	3273.6	0.62	0.15	4	60.0	0	100
12742	82	400000.0	5280.0	1.0	0.15	4	60.0	0	100
2607	82	400000.0	3168.0	0.6	0.15	4	60.0	0	100
5520	82	400000.0	4488.0	0.85	0.15	4	60.0	0	100
5522	83	400000.0	4382.4	0.83	0.15	4	60.0	0	100
2605	83	1200000.0	0.0	0.0	0.15	4	60.0	0	100
5607	84	400000.0	792.0	0.15	0.15	4	60.0	0	100
5628	84	400000.0	1531.2	0.29000000000000004	0.15	4	60.0	0	100
5629	84	400000.0	792.0	0.15	0.15	4	60.0	0	100
5626	84	400000.0	2692.8	0.51	0.15	4	60.0	0	100
4697	85	800000.0	0.0	0.0	0.15	4	60.0	0	100
5630	85	400000.0	10243.2	1.9400000000000002	0.15	4	60.0	0	100
4702	85	400000.0	10296.0	1.95	0.15	4	60.0	0	100
5608	86	400000.0	4540.8	0.86	0.15	4	60.0	0	100
5609	86	800000.0	0.0	0.0	0.15	4	60.0	0	100
13213	86	400000.0	7075.2	1.3399999999999999	0.15	4	60.0	0	100
13460	87	800000.0	0.0	0.0	0.15	4	60.0	0	100
4699	87	400000.0	3062.4	0.5800000000000001	0.15	4	60.0	0	100
12742	87	400000.0	6336.0	1.2	0.15	4	60.0	0	100
4534	88	400000.0	1900.8	0.36	0.15	4	60.0	0	100
4540	88	400000.0	4593.6	0.8700000000000001	0.15	4	60.0	0	100
4820	88	400000.0	2059.2	0.38999999999999996	0.15	4	60.0	0	100
4535	88	400000.0	1795.2	0.34	0.15	4	60.0	0	100
8147	89	400000.0	528.0	0.1	0.15	4	60.0	0	100
2718	89	400000.0	1161.6	0.21999999999999997	0.15	4	60.0	0	100
7949	89	400000.0	528.0	0.1	0.15	4	60.0	0	100
12889	89	400000.0	528.0	0.1	0.15	4	60.0	0	100
2601	90	400000.0	1795.2	0.34	0.15	4	60.0	0	100
2600	90	400000.0	2270.4	0.43	0.15	4	60.0	0	100
2595	90	400000.0	4012.8	0.7600000000000001	0.15	4	60.0	0	100
2597	90	400000.0	2270.4	0.43	0.15	4	60.0	0	100
4700	91	400000.0	9187.2	1.7400000000000002	0.15	4	60.0	0	100
4695	91	400000.0	0.0	0.0	0.15	4	60.0	0	100
4696	91	400000.0	3220.8	0.61	0.15	4	60.0	0	100
13458	91	400000.0	7339.2	1.39	0.15	4	60.0	0	100
5691	92	400000.0	3801.6	0.72	0.15	4	60.0	0	100
12594	92	400000.0	3432.0	0.65	0.15	4	60.0	0	100
3974	92	400000.0	11352.0	2.15	0.15	4	60.0	0	100
4009	92	400000.0	3379.2	0.64	0.15	4	60.0	0	100
4702	93	400000.0	2692.8	0.51	0.15	4	60.0	0	100
4701	93	800000.0	0.0	0.0	0.15	4	60.0	0	100
4700	93	400000.0	686.4	0.13	0.15	4	60.0	0	100
5645	94	400000.0	2481.6	0.47	0.15	4	60.0	0	100
13458	94	400000.0	2270.4	0.43	0.15	4	60.0	0	100
5641	94	400000.0	2745.6	0.52	0.15	4	60.0	0	100
5644	94	400000.0	1267.2	0.24000000000000002	0.15	4	60.0	0	100
4702	95	1200000.0	0.0	0.0	0.15	4	60.0	0	100
13455	95	400000.0	6019.2	1.14	0.15	4	60.0	0	100
10414	96	400000.0	1742.4	0.33	0.15	4	60.0	0	100
12346	96	400000.0	844.8	0.16	0.15	4	60.0	0	100
13034	96	400000.0	1320.0	0.25	0.15	4	60.0	0	100
12246	96	400000.0	3168.0	0.6	0.15	4	60.0	0	100
6567	97	400000.0	686.4	0.13	0.15	4	60.0	0	100
6568	97	400000.0	1531.2	0.29000000000000004	0.15	4	60.0	0	100
6566	97	400000.0	686.4	0.13	0.15	4	60.0	0	100
13148	97	400000.0	950.4	0.18	0.15	4	60.0	0	100
2597	98	400000.0	2851.2	0.5399999999999999	0.15	4	60.0	0	100
2595	98	800000.0	0.0	0.0	0.15	4	60.0	0	100
5567	98	400000.0	7339.2	1.39	0.15	4	60.0	0	100
2597	99	400000.0	1478.4	0.28	0.15	4	60.0	0	100
2605	99	400000.0	6705.6	1.27	0.15	4	60.0	0	100
2595	99	400000.0	1425.6	0.26999999999999996	0.15	4	60.0	0	100
5567	99	400000.0	6072.0	1.15	0.15	4	60.0	0	100
4023	100	1200000.0	0.0	0.0	0.15	4	60.0	0	100
5640	100	400000.0	12355.2	2.3400000000000003	0.15	4	60.0	0	100
13455	101	400000.0	2428.8	0.46	0.15	4	60.0	0	100
4700	101	400000.0	4752.0	0.9	0.15	4	60.0	0	100
5848	101	400000.0	5121.6	0.9700000000000001	0.15	4	60.0	0	100
5331	101	400000.0	6072.0	1.15	0.15	4	60.0	0	100
5586	102	400000.0	739.2	0.14	0.15	4	60.0	0	100
4023	102	400000.0	2112.0	0.4	0.15	4	60.0	0	100
4021	102	400000.0	2745.6	0.52	0.15	4	60.0	0	100
5581	102	400000.0	2112.0	0.4	0.15	4	60.0	0	100
5579	103	1200000.0	0.0	0.0	0.15	4	60.0	0	100
4018	103	400000.0	9715.2	1.84	0.15	4	60.0	0	100
5331	104	400000.0	3696.0	0.7	0.15	4	60.0	0	100
5854	104	400000.0	5491.2	1.04	0.15	4	60.0	0	100
5852	104	400000.0	3590.4	0.68	0.15	4	60.0	0	100
5847	104	400000.0	4065.6	0.77	0.15	4	60.0	0	100
5599	105	800000.0	0.0	0.0	0.15	4	60.0	0	100
12701	105	400000.0	3379.2	0.64	0.15	4	60.0	0	100
5601	105	400000.0	2745.6	0.52	0.15	4	60.0	0	100
5589	106	400000.0	2059.2	0.38999999999999996	0.15	4	60.0	0	100
5601	106	400000.0	4752.0	0.9	0.15	4	60.0	0	100
5921	106	400000.0	1003.2	0.19000000000000003	0.15	4	60.0	0	100
5916	106	400000.0	1056.0	0.2	0.15	4	60.0	0	100
5916	107	400000.0	1214.4	0.23	0.15	4	60.0	0	100
5938	107	400000.0	844.8	0.16	0.15	4	60.0	0	100
12731	107	400000.0	580.8	0.10999999999999999	0.15	4	60.0	0	100
5943	107	400000.0	739.2	0.14	0.15	4	60.0	0	100
5651	108	400000.0	1320.0	0.25	0.15	4	60.0	0	100
13458	108	400000.0	3379.2	0.64	0.15	4	60.0	0	100
5644	108	800000.0	0.0	0.0	0.15	4	60.0	0	100
5654	109	400000.0	739.2	0.14	0.15	4	60.0	0	100
5653	109	400000.0	528.0	0.1	0.15	4	60.0	0	100
5663	109	400000.0	2164.8	0.41000000000000003	0.15	4	60.0	0	100
5665	109	400000.0	897.6	0.17	0.15	4	60.0	0	100
11973	110	400000.0	2587.2	0.49	0.15	4	60.0	0	100
5656	110	400000.0	3220.8	0.61	0.15	4	60.0	0	100
5654	110	400000.0	2428.8	0.46	0.15	4	60.0	0	100
5849	110	400000.0	3220.8	0.61	0.15	4	60.0	0	100
5852	111	400000.0	1584.0	0.3	0.15	4	60.0	0	100
11973	111	400000.0	1689.6	0.32	0.15	4	60.0	0	100
5849	111	400000.0	1425.6	0.26999999999999996	0.15	4	60.0	0	100
12449	111	400000.0	4752.0	0.9	0.15	4	60.0	0	100
5847	112	400000.0	2428.8	0.46	0.15	4	60.0	0	100
5853	112	400000.0	2745.6	0.52	0.15	4	60.0	0	100
5810	112	400000.0	2376.0	0.45	0.15	4	60.0	0	100
5846	112	400000.0	2323.2	0.43999999999999995	0.15	4	60.0	0	100
4696	113	400000.0	4276.8	0.81	0.15	4	60.0	0	100
5630	113	400000.0	10032.0	1.9	0.15	4	60.0	0	100
5690	113	400000.0	4276.8	0.81	0.15	4	60.0	0	100
5667	113	400000.0	2323.2	0.43999999999999995	0.15	4	60.0	0	100
5689	114	400000.0	3379.2	0.64	0.15	4	60.0	0	100
13457	114	400000.0	3590.4	0.68	0.15	4	60.0	0	100
5639	114	400000.0	2217.6	0.42	0.15	4	60.0	0	100
5640	114	400000.0	2164.8	0.41000000000000003	0.15	4	60.0	0	100
5690	115	400000.0	2059.2	0.38999999999999996	0.15	4	60.0	0	100
5689	115	400000.0	2059.2	0.38999999999999996	0.15	4	60.0	0	100
5688	115	400000.0	2851.2	0.5399999999999999	0.15	4	60.0	0	100
5642	116	400000.0	1108.8	0.21	0.15	4	60.0	0	100
5667	116	400000.0	1425.6	0.26999999999999996	0.15	4	60.0	0	100
5690	116	400000.0	3696.0	0.7	0.15	4	60.0	0	100
5641	116	400000.0	1425.6	0.26999999999999996	0.15	4	60.0	0	100
12454	117	400000.0	1584.0	0.3	0.15	4	60.0	0	100
5543	117	400000.0	1214.4	0.23	0.15	4	60.0	0	100
5540	117	400000.0	1636.8	0.31	0.15	4	60.0	0	100
5873	117	400000.0	2112.0	0.4	0.15	4	60.0	0	100
5637	118	400000.0	7867.2	1.4900000000000002	0.15	4	60.0	0	100
4011	118	400000.0	3062.4	0.5800000000000001	0.15	4	60.0	0	100
4016	118	400000.0	8342.4	1.5799999999999998	0.15	4	60.0	0	100
5634	118	400000.0	5702.4	1.0799999999999998	0.15	4	60.0	0	100
13457	119	1600000.0	0.0	0.0	0.15	4	60.0	0	100
5633	120	400000.0	2481.6	0.47	0.15	4	60.0	0	100
5634	120	800000.0	0.0	0.0	0.15	4	60.0	0	100
5632	120	400000.0	1161.6	0.21999999999999997	0.15	4	60.0	0	100
12697	121	400000.0	1003.2	0.19000000000000003	0.15	4	60.0	0	100
5635	121	400000.0	1742.4	0.33	0.15	4	60.0	0	100
5636	121	400000.0	1003.2	0.19000000000000003	0.15	4	60.0	0	100
12695	121	400000.0	12883.2	2.44	0.15	4	60.0	0	100
5369	122	400000.0	1478.4	0.28	0.15	4	60.0	0	100
5539	122	400000.0	3696.0	0.7	0.15	4	60.0	0	100
5587	122	400000.0	9820.8	1.8599999999999999	0.15	4	60.0	0	100
5538	122	400000.0	3696.0	0.7	0.15	4	60.0	0	100
5669	123	400000.0	2851.2	0.5399999999999999	0.15	4	60.0	0	100
4918	123	400000.0	1795.2	0.34	0.15	4	60.0	0	100
5588	123	400000.0	4857.6	0.92	0.15	4	60.0	0	100
12706	123	400000.0	1795.2	0.34	0.15	4	60.0	0	100
5670	124	400000.0	3220.8	0.61	0.15	4	60.0	0	100
5538	124	400000.0	3009.6	0.57	0.15	4	60.0	0	100
5547	124	400000.0	3326.4	0.63	0.15	4	60.0	0	100
5549	124	400000.0	3009.6	0.57	0.15	4	60.0	0	100
5640	125	1200000.0	0.0	0.0	0.15	4	60.0	0	100
5639	125	400000.0	1425.6	0.26999999999999996	0.15	4	60.0	0	100
5800	126	800000.0	0.0	0.0	0.15	4	60.0	0	100
5679	126	400000.0	1848.0	0.35	0.15	4	60.0	0	100
5799	126	400000.0	1953.6	0.36999999999999994	0.15	4	60.0	0	100
5773	127	400000.0	1636.8	0.31	0.15	4	60.0	0	100
5845	127	400000.0	1531.2	0.29000000000000004	0.15	4	60.0	0	100
5799	127	400000.0	3273.6	0.62	0.15	4	60.0	0	100
12703	127	400000.0	1953.6	0.36999999999999994	0.15	4	60.0	0	100
5791	128	400000.0	1372.8	0.26	0.15	4	60.0	0	100
5789	128	400000.0	1320.0	0.25	0.15	4	60.0	0	100
5786	128	400000.0	1531.2	0.29000000000000004	0.15	4	60.0	0	100
5835	128	400000.0	1214.4	0.23	0.15	4	60.0	0	100
5725	129	400000.0	950.4	0.18	0.15	4	60.0	0	100
5964	129	400000.0	422.4	0.08	0.15	4	60.0	0	100
5963	129	400000.0	105.6	0.02	0.15	4	60.0	0	100
5732	129	400000.0	1795.2	0.34	0.15	4	60.0	0	100
5800	130	400000.0	897.6	0.17	0.15	4	60.0	0	100
5888	130	400000.0	1742.4	0.33	0.15	4	60.0	0	100
5679	130	400000.0	950.4	0.18	0.15	4	60.0	0	100
5675	130	400000.0	1161.6	0.21999999999999997	0.15	4	60.0	0	100
5679	131	400000.0	2217.6	0.42	0.15	4	60.0	0	100
5670	131	400000.0	2323.2	0.43999999999999995	0.15	4	60.0	0	100
5549	131	400000.0	2270.4	0.43	0.15	4	60.0	0	100
5674	131	400000.0	1531.2	0.29000000000000004	0.15	4	60.0	0	100
5726	132	400000.0	3168.0	0.6	0.15	4	60.0	0	100
13133	132	400000.0	1742.4	0.33	0.15	4	60.0	0	100
5798	132	400000.0	1161.6	0.21999999999999997	0.15	4	60.0	0	100
5797	132	400000.0	1848.0	0.35	0.15	4	60.0	0	100
5890	133	400000.0	2323.2	0.43999999999999995	0.15	4	60.0	0	100
5674	133	400000.0	1108.8	0.21	0.15	4	60.0	0	100
5709	133	400000.0	2270.4	0.43	0.15	4	60.0	0	100
5716	133	400000.0	1056.0	0.2	0.15	4	60.0	0	100
5732	134	400000.0	950.4	0.18	0.15	4	60.0	0	100
4600	134	400000.0	1214.4	0.23	0.15	4	60.0	0	100
4592	134	400000.0	1003.2	0.19000000000000003	0.15	4	60.0	0	100
5731	134	400000.0	1795.2	0.34	0.15	4	60.0	0	100
5719	135	400000.0	792.0	0.15	0.15	4	60.0	0	100
5535	135	400000.0	1161.6	0.21999999999999997	0.15	4	60.0	0	100
5714	135	400000.0	2692.8	0.51	0.15	4	60.0	0	100
5820	135	400000.0	1636.8	0.31	0.15	4	60.0	0	100
2583	136	400000.0	5702.4	1.0799999999999998	0.15	4	60.0	0	100
2578	136	800000.0	0.0	0.0	0.15	4	60.0	0	100
2574	136	400000.0	5755.2	1.0899999999999999	0.15	4	60.0	0	100
5701	137	400000.0	1372.8	0.26	0.15	4	60.0	0	100
5669	137	400000.0	2059.2	0.38999999999999996	0.15	4	60.0	0	100
12706	137	400000.0	1478.4	0.28	0.15	4	60.0	0	100
5700	137	400000.0	1320.0	0.25	0.15	4	60.0	0	100
12705	138	400000.0	3432.0	0.65	0.15	4	60.0	0	100
5706	138	400000.0	1584.0	0.3	0.15	4	60.0	0	100
4933	138	400000.0	6177.6	1.1700000000000002	0.15	4	60.0	0	100
11891	138	400000.0	1003.2	0.19000000000000003	0.15	4	60.0	0	100
4019	139	1200000.0	0.0	0.0	0.15	4	60.0	0	100
13532	139	400000.0	3854.4	0.73	0.15	4	60.0	0	100
5537	140	400000.0	5755.2	1.0899999999999999	0.15	4	60.0	0	100
5587	140	1200000.0	0.0	0.0	0.15	4	60.0	0	100
5583	141	400000.0	1848.0	0.35	0.15	4	60.0	0	100
5582	141	400000.0	3960.0	0.75	0.15	4	60.0	0	100
5580	141	400000.0	1900.8	0.36	0.15	4	60.0	0	100
5574	141	400000.0	5332.8	1.01	0.15	4	60.0	0	100
13532	142	400000.0	1689.6	0.32	0.15	4	60.0	0	100
4020	142	400000.0	2164.8	0.41000000000000003	0.15	4	60.0	0	100
4018	142	400000.0	5913.6	1.12	0.15	4	60.0	0	100
4022	142	400000.0	2217.6	0.42	0.15	4	60.0	0	100
4930	143	400000.0	1689.6	0.32	0.15	4	60.0	0	100
5588	143	400000.0	1584.0	0.3	0.15	4	60.0	0	100
5583	143	400000.0	2956.8	0.56	0.15	4	60.0	0	100
4931	143	400000.0	2376.0	0.45	0.15	4	60.0	0	100
4809	144	400000.0	844.8	0.16	0.15	4	60.0	0	100
4821	144	400000.0	10771.2	2.04	0.15	4	60.0	0	100
4808	144	400000.0	950.4	0.18	0.15	4	60.0	0	100
12748	144	400000.0	1214.4	0.23	0.15	4	60.0	0	100
13161	145	400000.0	4540.8	0.86	0.15	4	60.0	0	100
5576	145	400000.0	4593.6	0.8700000000000001	0.15	4	60.0	0	100
5573	145	400000.0	6072.0	1.15	0.15	4	60.0	0	100
4929	145	400000.0	3854.4	0.73	0.15	4	60.0	0	100
1727	146	400000.0	2428.8	0.46	0.15	4	60.0	0	100
5573	146	400000.0	10454.4	1.98	0.15	4	60.0	0	100
4947	146	400000.0	5280.0	1.0	0.15	4	60.0	0	100
4924	146	400000.0	3432.0	0.65	0.15	4	60.0	0	100
5767	147	400000.0	2428.8	0.46	0.15	4	60.0	0	100
11907	147	400000.0	1636.8	0.31	0.15	4	60.0	0	100
5812	147	400000.0	2587.2	0.49	0.15	4	60.0	0	100
5817	147	400000.0	1689.6	0.32	0.15	4	60.0	0	100
5813	148	400000.0	2428.8	0.46	0.15	4	60.0	0	100
12705	148	400000.0	1584.0	0.3	0.15	4	60.0	0	100
5710	148	400000.0	3484.8	0.66	0.15	4	60.0	0	100
12715	148	400000.0	1584.0	0.3	0.15	4	60.0	0	100
11876	149	400000.0	3009.6	0.57	0.15	4	60.0	0	100
4929	149	400000.0	4646.4	0.8799999999999999	0.15	4	60.0	0	100
4928	149	400000.0	5596.8	1.06	0.15	4	60.0	0	100
12716	149	400000.0	4276.8	0.81	0.15	4	60.0	0	100
5335	150	400000.0	4224.0	0.8	0.15	4	60.0	0	100
4922	150	400000.0	4276.8	0.81	0.15	4	60.0	0	100
12104	150	400000.0	3379.2	0.64	0.15	4	60.0	0	100
4927	150	400000.0	2376.0	0.45	0.15	4	60.0	0	100
5491	151	400000.0	4435.2	0.84	0.15	4	60.0	0	100
5002	151	400000.0	3062.4	0.5800000000000001	0.15	4	60.0	0	100
4950	151	400000.0	4171.2	0.7899999999999999	0.15	4	60.0	0	100
5494	151	400000.0	7444.8	1.4100000000000001	0.15	4	60.0	0	100
10319	152	400000.0	1531.2	0.29000000000000004	0.15	4	60.0	0	100
12079	152	400000.0	2217.6	0.42	0.15	4	60.0	0	100
5402	152	400000.0	316.8	0.060000000000000005	0.15	4	60.0	0	100
11729	152	400000.0	475.2	0.09	0.15	4	60.0	0	100
9938	153	400000.0	2112.0	0.4	0.15	4	60.0	0	100
9936	153	400000.0	3960.0	0.75	0.15	4	60.0	0	100
9935	153	400000.0	2323.2	0.43999999999999995	0.15	4	60.0	0	100
9930	153	400000.0	3801.6	0.72	0.15	4	60.0	0	100
10838	154	400000.0	4963.2	0.94	0.15	4	60.0	0	100
10031	154	400000.0	2534.4	0.48000000000000004	0.15	4	60.0	0	100
9943	154	400000.0	6600.0	1.25	0.15	4	60.0	0	100
12475	154	400000.0	12355.2	2.3400000000000003	0.15	4	60.0	0	100
10824	155	400000.0	1848.0	0.35	0.15	4	60.0	0	100
12298	155	400000.0	897.6	0.17	0.15	4	60.0	0	100
10548	155	400000.0	4699.2	0.89	0.15	4	60.0	0	100
10834	155	400000.0	2270.4	0.43	0.15	4	60.0	0	100
12429	156	400000.0	3273.6	0.62	0.15	4	60.0	0	100
10370	156	400000.0	1003.2	0.19000000000000003	0.15	4	60.0	0	100
12363	156	400000.0	3907.2	0.7399999999999999	0.15	4	60.0	0	100
10609	156	400000.0	3432.0	0.65	0.15	4	60.0	0	100
11752	157	400000.0	1320.0	0.25	0.15	4	60.0	0	100
10359	157	400000.0	4118.4	0.7799999999999999	0.15	4	60.0	0	100
11770	157	400000.0	633.6	0.12000000000000001	0.15	4	60.0	0	100
13363	157	400000.0	686.4	0.13	0.15	4	60.0	0	100
10620	158	400000.0	2798.4	0.53	0.15	4	60.0	0	100
10357	158	400000.0	2006.4	0.38000000000000006	0.15	4	60.0	0	100
12392	158	400000.0	2640.0	0.5	0.15	4	60.0	0	100
10621	158	400000.0	2692.8	0.51	0.15	4	60.0	0	100
12063	159	400000.0	950.4	0.18	0.15	4	60.0	0	100
10054	159	400000.0	2640.0	0.5	0.15	4	60.0	0	100
10046	159	400000.0	2851.2	0.5399999999999999	0.15	4	60.0	0	100
11319	159	400000.0	2904.0	0.55	0.15	4	60.0	0	100
13495	160	400000.0	1584.0	0.3	0.15	4	60.0	0	100
11703	160	400000.0	2323.2	0.43999999999999995	0.15	4	60.0	0	100
9696	160	400000.0	1584.0	0.3	0.15	4	60.0	0	100
11702	160	400000.0	1584.0	0.3	0.15	4	60.0	0	100
11653	161	400000.0	1478.4	0.28	0.15	4	60.0	0	100
9706	161	400000.0	2112.0	0.4	0.15	4	60.0	0	100
9703	161	400000.0	4171.2	0.7899999999999999	0.15	4	60.0	0	100
11409	161	400000.0	3537.6	0.6699999999999999	0.15	4	60.0	0	100
12281	162	400000.0	1584.0	0.3	0.15	4	60.0	0	100
11840	162	400000.0	3115.2	0.59	0.15	4	60.0	0	100
12280	162	400000.0	2112.0	0.4	0.15	4	60.0	0	100
12283	162	400000.0	2692.8	0.51	0.15	4	60.0	0	100
10397	163	400000.0	2217.6	0.42	0.15	4	60.0	0	100
10013	163	400000.0	0.0	0.0	0.15	4	60.0	0	100
10011	163	400000.0	2006.4	0.38000000000000006	0.15	4	60.0	0	100
10015	163	400000.0	950.4	0.18	0.15	4	60.0	0	100
10395	164	400000.0	2745.6	0.52	0.15	4	60.0	0	100
10397	164	400000.0	3115.2	0.59	0.15	4	60.0	0	100
12369	164	400000.0	2323.2	0.43999999999999995	0.15	4	60.0	0	100
13364	164	400000.0	3326.4	0.63	0.15	4	60.0	0	100
12419	165	400000.0	950.4	0.18	0.15	4	60.0	0	100
11756	165	400000.0	1320.0	0.25	0.15	4	60.0	0	100
11771	165	400000.0	950.4	0.18	0.15	4	60.0	0	100
10022	165	400000.0	4804.8	0.91	0.15	4	60.0	0	100
11370	166	400000.0	2904.0	0.55	0.15	4	60.0	0	100
10240	166	400000.0	4910.4	0.9299999999999999	0.15	4	60.0	0	100
11328	166	400000.0	2059.2	0.38999999999999996	0.15	4	60.0	0	100
11356	166	400000.0	3273.6	0.62	0.15	4	60.0	0	100
11368	167	400000.0	792.0	0.15	0.15	4	60.0	0	100
10095	167	400000.0	2006.4	0.38000000000000006	0.15	4	60.0	0	100
10132	167	400000.0	1900.8	0.36	0.15	4	60.0	0	100
10210	167	400000.0	1742.4	0.33	0.15	4	60.0	0	100
11318	168	400000.0	950.4	0.18	0.15	4	60.0	0	100
9870	168	800000.0	0.0	0.0	0.15	4	60.0	0	100
11646	168	400000.0	1531.2	0.29000000000000004	0.15	4	60.0	0	100
11799	169	400000.0	1795.2	0.34	0.15	4	60.0	0	100
9675	169	400000.0	2587.2	0.49	0.15	4	60.0	0	100
13494	169	400000.0	2376.0	0.45	0.15	4	60.0	0	100
9669	169	400000.0	1848.0	0.35	0.15	4	60.0	0	100
12409	170	400000.0	3168.0	0.6	0.15	4	60.0	0	100
12410	170	400000.0	1795.2	0.34	0.15	4	60.0	0	100
10573	170	400000.0	2112.0	0.4	0.15	4	60.0	0	100
10568	170	400000.0	4065.6	0.77	0.15	4	60.0	0	100
12204	171	400000.0	528.0	0.1	0.15	4	60.0	0	100
12200	171	400000.0	1003.2	0.19000000000000003	0.15	4	60.0	0	100
13428	171	400000.0	1478.4	0.28	0.15	4	60.0	0	100
12206	171	400000.0	686.4	0.13	0.15	4	60.0	0	100
10532	172	400000.0	3590.4	0.68	0.15	4	60.0	0	100
12287	172	400000.0	1320.0	0.25	0.15	4	60.0	0	100
10424	172	400000.0	1003.2	0.19000000000000003	0.15	4	60.0	0	100
10419	172	400000.0	2640.0	0.5	0.15	4	60.0	0	100
10541	173	400000.0	475.2	0.09	0.15	4	60.0	0	100
10532	173	400000.0	633.6	0.12000000000000001	0.15	4	60.0	0	100
12288	173	400000.0	4012.8	0.7600000000000001	0.15	4	60.0	0	100
10542	173	400000.0	844.8	0.16	0.15	4	60.0	0	100
10021	174	400000.0	3432.0	0.65	0.15	4	60.0	0	100
11388	174	400000.0	1742.4	0.33	0.15	4	60.0	0	100
12234	174	400000.0	580.8	0.10999999999999999	0.15	4	60.0	0	100
10415	174	400000.0	1636.8	0.31	0.15	4	60.0	0	100
10375	175	400000.0	1689.6	0.32	0.15	4	60.0	0	100
10022	175	400000.0	1214.4	0.23	0.15	4	60.0	0	100
10019	175	400000.0	3009.6	0.57	0.15	4	60.0	0	100
10025	175	400000.0	1161.6	0.21999999999999997	0.15	4	60.0	0	100
12356	176	400000.0	3379.2	0.64	0.15	4	60.0	0	100
11719	176	400000.0	3801.6	0.72	0.15	4	60.0	0	100
12275	176	400000.0	3009.6	0.57	0.15	4	60.0	0	100
12355	176	400000.0	1531.2	0.29000000000000004	0.15	4	60.0	0	100
10447	177	400000.0	475.2	0.09	0.15	4	60.0	0	100
10515	177	400000.0	1320.0	0.25	0.15	4	60.0	0	100
10808	177	400000.0	844.8	0.16	0.15	4	60.0	0	100
10810	177	400000.0	1320.0	0.25	0.15	4	60.0	0	100
12244	178	400000.0	1003.2	0.19000000000000003	0.15	4	60.0	0	100
12417	178	400000.0	422.4	0.08	0.15	4	60.0	0	100
10445	178	400000.0	1584.0	0.3	0.15	4	60.0	0	100
11839	178	400000.0	1478.4	0.28	0.15	4	60.0	0	100
10023	179	400000.0	2376.0	0.45	0.15	4	60.0	0	100
10018	179	400000.0	2376.0	0.45	0.15	4	60.0	0	100
11392	179	400000.0	2798.4	0.53	0.15	4	60.0	0	100
12252	179	400000.0	1161.6	0.21999999999999997	0.15	4	60.0	0	100
10446	180	400000.0	1056.0	0.2	0.15	4	60.0	0	100
10810	180	400000.0	844.8	0.16	0.15	4	60.0	0	100
10794	180	400000.0	792.0	0.15	0.15	4	60.0	0	100
10444	180	400000.0	897.6	0.17	0.15	4	60.0	0	100
11839	181	400000.0	369.6	0.07	0.15	4	60.0	0	100
10445	181	400000.0	950.4	0.18	0.15	4	60.0	0	100
12240	181	400000.0	2164.8	0.41000000000000003	0.15	4	60.0	0	100
12339	181	400000.0	369.6	0.07	0.15	4	60.0	0	100
12125	182	400000.0	2851.2	0.5399999999999999	0.15	4	60.0	0	100
10911	182	400000.0	3748.8	0.7100000000000001	0.15	4	60.0	0	100
3387	182	400000.0	4804.8	0.91	0.15	4	60.0	0	100
12123	182	400000.0	3590.4	0.68	0.15	4	60.0	0	100
10017	183	1200000.0	0.0	0.0	0.15	4	60.0	0	100
12259	183	400000.0	2587.2	0.49	0.15	4	60.0	0	100
10807	184	400000.0	580.8	0.10999999999999999	0.15	4	60.0	0	100
10433	184	400000.0	369.6	0.07	0.15	4	60.0	0	100
10430	184	400000.0	633.6	0.12000000000000001	0.15	4	60.0	0	100
13025	184	400000.0	422.4	0.08	0.15	4	60.0	0	100
12424	185	400000.0	369.6	0.07	0.15	4	60.0	0	100
10788	185	400000.0	1320.0	0.25	0.15	4	60.0	0	100
11527	185	400000.0	844.8	0.16	0.15	4	60.0	0	100
10441	185	400000.0	686.4	0.13	0.15	4	60.0	0	100
12240	186	400000.0	422.4	0.08	0.15	4	60.0	0	100
11397	186	400000.0	1320.0	0.25	0.15	4	60.0	0	100
10443	186	400000.0	686.4	0.13	0.15	4	60.0	0	100
12193	186	400000.0	475.2	0.09	0.15	4	60.0	0	100
10416	187	400000.0	1267.2	0.24000000000000002	0.15	4	60.0	0	100
10414	187	400000.0	1214.4	0.23	0.15	4	60.0	0	100
12246	187	400000.0	3168.0	0.6	0.15	4	60.0	0	100
10417	187	400000.0	1161.6	0.21999999999999997	0.15	4	60.0	0	100
10774	188	400000.0	633.6	0.12000000000000001	0.15	4	60.0	0	100
12638	188	400000.0	528.0	0.1	0.15	4	60.0	0	100
9682	188	400000.0	3115.2	0.59	0.15	4	60.0	0	100
10684	188	400000.0	3168.0	0.6	0.15	4	60.0	0	100
12310	189	400000.0	1848.0	0.35	0.15	4	60.0	0	100
12301	189	400000.0	1161.6	0.21999999999999997	0.15	4	60.0	0	100
11686	189	400000.0	2323.2	0.43999999999999995	0.15	4	60.0	0	100
10799	189	400000.0	2270.4	0.43	0.15	4	60.0	0	100
10440	190	400000.0	422.4	0.08	0.15	4	60.0	0	100
10441	190	400000.0	580.8	0.10999999999999999	0.15	4	60.0	0	100
10722	190	400000.0	1161.6	0.21999999999999997	0.15	4	60.0	0	100
10442	190	400000.0	580.8	0.10999999999999999	0.15	4	60.0	0	100
12413	191	400000.0	1531.2	0.29000000000000004	0.15	4	60.0	0	100
12414	191	400000.0	1267.2	0.24000000000000002	0.15	4	60.0	0	100
11526	191	400000.0	2587.2	0.49	0.15	4	60.0	0	100
13024	191	400000.0	1900.8	0.36	0.15	4	60.0	0	100
12394	192	400000.0	528.0	0.1	0.15	4	60.0	0	100
10712	192	400000.0	1161.6	0.21999999999999997	0.15	4	60.0	0	100
10710	192	400000.0	844.8	0.16	0.15	4	60.0	0	100
11777	192	400000.0	1161.6	0.21999999999999997	0.15	4	60.0	0	100
12245	193	400000.0	2270.4	0.43	0.15	4	60.0	0	100
12416	193	400000.0	1161.6	0.21999999999999997	0.15	4	60.0	0	100
12243	193	400000.0	422.4	0.08	0.15	4	60.0	0	100
12189	193	400000.0	1056.0	0.2	0.15	4	60.0	0	100
11537	194	400000.0	2323.2	0.43999999999999995	0.15	4	60.0	0	100
12397	194	400000.0	1214.4	0.23	0.15	4	60.0	0	100
11396	194	400000.0	2323.2	0.43999999999999995	0.15	4	60.0	0	100
11400	194	400000.0	2112.0	0.4	0.15	4	60.0	0	100
9452	195	400000.0	2904.0	0.55	0.15	4	60.0	0	100
11438	195	400000.0	3748.8	0.7100000000000001	0.15	4	60.0	0	100
10500	195	400000.0	3748.8	0.7100000000000001	0.15	4	60.0	0	100
11723	195	400000.0	2851.2	0.5399999999999999	0.15	4	60.0	0	100
10697	196	400000.0	1214.4	0.23	0.15	4	60.0	0	100
10769	196	400000.0	1425.6	0.26999999999999996	0.15	4	60.0	0	100
10690	196	400000.0	1584.0	0.3	0.15	4	60.0	0	100
10770	196	400000.0	1372.8	0.26	0.15	4	60.0	0	100
12223	197	400000.0	158.4	0.030000000000000002	0.15	4	60.0	0	100
12221	197	400000.0	475.2	0.09	0.15	4	60.0	0	100
12220	197	400000.0	580.8	0.10999999999999999	0.15	4	60.0	0	100
12231	197	400000.0	316.8	0.060000000000000005	0.15	4	60.0	0	100
13029	198	400000.0	1900.8	0.36	0.15	4	60.0	0	100
12337	198	400000.0	1689.6	0.32	0.15	4	60.0	0	100
10755	198	400000.0	1531.2	0.29000000000000004	0.15	4	60.0	0	100
10736	198	400000.0	1584.0	0.3	0.15	4	60.0	0	100
12478	199	400000.0	1900.8	0.36	0.15	4	60.0	0	100
10934	199	400000.0	1372.8	0.26	0.15	4	60.0	0	100
10484	199	400000.0	1636.8	0.31	0.15	4	60.0	0	100
10932	199	400000.0	1584.0	0.3	0.15	4	60.0	0	100
9919	200	400000.0	1478.4	0.28	0.15	4	60.0	0	100
11640	200	400000.0	2217.6	0.42	0.15	4	60.0	0	100
12965	200	400000.0	2640.0	0.5	0.15	4	60.0	0	100
10059	200	400000.0	2006.4	0.38000000000000006	0.15	4	60.0	0	100
10212	201	400000.0	1900.8	0.36	0.15	4	60.0	0	100
11364	201	400000.0	1531.2	0.29000000000000004	0.15	4	60.0	0	100
10127	201	400000.0	1742.4	0.33	0.15	4	60.0	0	100
10134	201	400000.0	1531.2	0.29000000000000004	0.15	4	60.0	0	100
9881	202	400000.0	3326.4	0.63	0.15	4	60.0	0	100
9883	202	400000.0	1372.8	0.26	0.15	4	60.0	0	100
11806	202	400000.0	1584.0	0.3	0.15	4	60.0	0	100
9610	202	400000.0	1320.0	0.25	0.15	4	60.0	0	100
9612	203	400000.0	1900.8	0.36	0.15	4	60.0	0	100
9613	203	400000.0	1795.2	0.34	0.15	4	60.0	0	100
9610	203	400000.0	2006.4	0.38000000000000006	0.15	4	60.0	0	100
9606	203	400000.0	4329.6	0.8200000000000001	0.15	4	60.0	0	100
10684	204	400000.0	6124.8	1.1600000000000001	0.15	4	60.0	0	100
10776	204	400000.0	6600.0	1.25	0.15	4	60.0	0	100
9486	204	400000.0	3326.4	0.63	0.15	4	60.0	0	100
9651	204	400000.0	6072.0	1.15	0.15	4	60.0	0	100
10677	205	400000.0	844.8	0.16	0.15	4	60.0	0	100
10668	205	400000.0	1372.8	0.26	0.15	4	60.0	0	100
10667	205	400000.0	2217.6	0.42	0.15	4	60.0	0	100
10676	205	400000.0	1108.8	0.21	0.15	4	60.0	0	100
3519	206	400000.0	1531.2	0.29000000000000004	0.15	4	60.0	0	100