<NUMBER OF ZONES> 24
<TOTAL OD FLOW> 188818.65000000034
<TOLL FACTOR> 2.6765
<END OF METADATA>

Origin 1 
1 : 0.0 2 : 73.35000000000001 3 : 73.35000000000001 4 : 366.75 5 : 146.70000000000002 
6 : 220.05 7 : 366.75 8 : 586.8000000000001 9 : 366.75 10 : 953.5500000000001 
11 : 366.75 12 : 146.70000000000002 13 : 366.75 14 : 220.05 15 : 366.75 
16 : 366.75 17 : 293.40000000000003 18 : 73.35000000000001 19 : 220.05 20 : 220.05 
21 : 73.35000000000001 22 : 293.40000000000003 23 : 220.05 24 : 73.35000000000001 
Origin 2 
1 : 35.3 2 : 0.0 3 : 35.3 4 : 70.6 5 : 35.3 
6 : 141.2 7 : 70.6 8 : 141.2 9 : 70.6 10 : 211.79999999999998 
11 : 70.6 12 : 35.3 13 : 105.89999999999999 14 : 35.3 15 : 35.3 
16 : 141.2 17 : 70.6 18 : 0.0 19 : 35.3 20 : 35.3 
21 : 0.0 22 : 35.3 23 : 0.0 24 : 0.0 
Origin 3 
1 : 35.3 2 : 35.3 3 : 0.0 4 : 70.6 5 : 35.3 
6 : 105.89999999999999 7 : 35.3 8 : 70.6 9 : 35.3 10 : 105.89999999999999 
11 : 105.89999999999999 12 : 70.6 13 : 35.3 14 : 35.3 15 : 35.3 
16 : 70.6 17 : 35.3 18 : 0.0 19 : 0.0 20 : 0.0 
21 : 0.0 22 : 35.3 23 : 35.3 24 : 0.0 
Origin 4 
1 : 176.5 2 : 70.6 3 : 70.6 4 : 0.0 5 : 176.5 
6 : 141.2 7 : 141.2 8 : 247.1 9 : 247.1 10 : 423.59999999999997 
11 : 494.2 12 : 211.79999999999998 13 : 211.79999999999998 14 : 176.5 15 : 176.5 
16 : 282.4 17 : 176.5 18 : 35.3 19 : 70.6 20 : 105.89999999999999 
21 : 70.6 22 : 141.2 23 : 176.5 24 : 70.6 
Origin 5 
1 : 70.6 2 : 35.3 3 : 35.3 4 : 176.5 5 : 0.0 
6 : 70.6 7 : 70.6 8 : 176.5 9 : 282.4 10 : 353.0 
11 : 176.5 12 : 70.6 13 : 70.6 14 : 35.3 15 : 70.6 
16 : 176.5 17 : 70.6 18 : 0.0 19 : 35.3 20 : 35.3 
21 : 35.3 22 : 70.6 23 : 35.3 24 : 0.0 
Origin 6 
1 : 105.89999999999999 2 : 141.2 3 : 105.89999999999999 4 : 141.2 5 : 70.6 
6 : 0.0 7 : 141.2 8 : 282.4 9 : 141.2 10 : 282.4 
11 : 141.2 12 : 70.6 13 : 70.6 14 : 35.3 15 : 70.6 
16 : 317.7 17 : 176.5 18 : 35.3 19 : 70.6 20 : 105.89999999999999 
21 : 35.3 22 : 70.6 23 : 35.3 24 : 35.3 
Origin 7 
1 : 176.5 2 : 70.6 3 : 35.3 4 : 141.2 5 : 70.6 
6 : 141.2 7 : 0.0 8 : 353.0 9 : 211.79999999999998 10 : 670.6999999999999 
11 : 176.5 12 : 247.1 13 : 141.2 14 : 70.6 15 : 176.5 
16 : 494.2 17 : 353.0 18 : 70.6 19 : 141.2 20 : 176.5 
21 : 70.6 22 : 176.5 23 : 70.6 24 : 35.3 
Origin 8 
1 : 282.4 2 : 141.2 3 : 70.6 4 : 247.1 5 : 176.5 
6 : 282.4 7 : 353.0 8 : 0.0 9 : 282.4 10 : 564.8 
11 : 282.4 12 : 211.79999999999998 13 : 211.79999999999998 14 : 141.2 15 : 211.79999999999998 
16 : 776.5999999999999 17 : 494.2 18 : 105.89999999999999 19 : 247.1 20 : 317.7 
21 : 141.2 22 : 176.5 23 : 105.89999999999999 24 : 70.6 
Origin 9 
1 : 176.5 2 : 70.6 3 : 35.3 4 : 247.1 5 : 282.4 
6 : 141.2 7 : 211.79999999999998 8 : 282.4 9 : 0.0 10 : 988.4 
11 : 494.2 12 : 211.79999999999998 13 : 211.79999999999998 14 : 211.79999999999998 15 : 317.7 
16 : 494.2 17 : 317.7 18 : 70.6 19 : 141.2 20 : 211.79999999999998 
21 : 105.89999999999999 22 : 247.1 23 : 176.5 24 : 70.6 
Origin 10 
1 : 458.9 2 : 211.79999999999998 3 : 105.89999999999999 4 : 423.59999999999997 5 : 353.0 
6 : 282.4 7 : 670.6999999999999 8 : 564.8 9 : 988.4 10 : 0.0 
11 : 1412.0 12 : 706.0 13 : 670.6999999999999 14 : 741.3 15 : 1412.0 
16 : 1553.1999999999998 17 : 1376.6999999999998 18 : 247.1 19 : 635.4 20 : 882.5 
21 : 423.59999999999997 22 : 917.8 23 : 635.4 24 : 282.4 
Origin 11 
1 : 176.5 2 : 70.6 3 : 105.89999999999999 4 : 529.5 5 : 176.5 
6 : 141.2 7 : 176.5 8 : 282.4 9 : 494.2 10 : 1376.6999999999998 
11 : 0.0 12 : 494.2 13 : 353.0 14 : 564.8 15 : 494.2 
16 : 494.2 17 : 353.0 18 : 35.3 19 : 141.2 20 : 211.79999999999998 
21 : 141.2 22 : 388.29999999999995 23 : 458.9 24 : 211.79999999999998 
Origin 12 
1 : 146.70000000000002 2 : 73.35000000000001 3 : 146.70000000000002 4 : 440.1 5 : 146.70000000000002 
6 : 146.70000000000002 7 : 513.45 8 : 440.1 9 : 440.1 10 : 1467.0 
11 : 1026.9 12 : 0.0 13 : 953.5500000000001 14 : 513.45 15 : 513.45 
16 : 513.45 17 : 440.1 18 : 146.70000000000002 19 : 220.05 20 : 293.40000000000003 
21 : 220.05 22 : 513.45 23 : 513.45 24 : 366.75 
Origin 13 
1 : 366.75 2 : 220.05 3 : 73.35000000000001 4 : 440.1 5 : 146.70000000000002 
6 : 146.70000000000002 7 : 293.40000000000003 8 : 440.1 9 : 440.1 10 : 1393.65 
11 : 733.5 12 : 953.5500000000001 13 : 0.0 14 : 440.1 15 : 513.45 
16 : 440.1 17 : 366.75 18 : 73.35000000000001 19 : 220.05 20 : 440.1 
21 : 440.1 22 : 953.5500000000001 23 : 586.8000000000001 24 : 586.8000000000001 
Origin 14 
1 : 220.05 2 : 73.35000000000001 3 : 73.35000000000001 4 : 366.75 5 : 73.35000000000001 
6 : 73.35000000000001 7 : 146.70000000000002 8 : 293.40000000000003 9 : 440.1 10 : 1540.3500000000001 
11 : 1173.6000000000001 12 : 513.45 13 : 440.1 14 : 0.0 15 : 953.5500000000001 
16 : 513.45 17 : 513.45 18 : 73.35000000000001 19 : 220.05 20 : 366.75 
21 : 293.40000000000003 22 : 880.2 23 : 806.85 24 : 293.40000000000003 
Origin 15 
1 : 366.75 2 : 73.35000000000001 3 : 73.35000000000001 4 : 366.75 5 : 146.70000000000002 
6 : 146.70000000000002 7 : 366.75 8 : 440.1 9 : 733.5 10 : 2934.0 
11 : 1026.9 12 : 513.45 13 : 513.45 14 : 953.5500000000001 15 : 0.0 
16 : 880.2 17 : 1100.25 18 : 146.70000000000002 19 : 586.8000000000001 20 : 806.85 
21 : 586.8000000000001 22 : 1907.1000000000001 23 : 733.5 24 : 293.40000000000003 
Origin 16 
1 : 176.5 2 : 141.2 3 : 70.6 4 : 282.4 5 : 176.5 
6 : 317.7 7 : 494.2 8 : 776.5999999999999 9 : 494.2 10 : 1553.1999999999998 
11 : 494.2 12 : 247.1 13 : 211.79999999999998 14 : 247.1 15 : 423.59999999999997 
16 : 0.0 17 : 988.4 18 : 176.5 19 : 458.9 20 : 564.8 
21 : 211.79999999999998 22 : 423.59999999999997 23 : 176.5 24 : 105.89999999999999 
Origin 17 
1 : 141.2 2 : 70.6 3 : 35.3 4 : 176.5 5 : 70.6 
6 : 176.5 7 : 353.0 8 : 494.2 9 : 317.7 10 : 1376.6999999999998 
11 : 353.0 12 : 211.79999999999998 13 : 176.5 14 : 247.1 15 : 529.5 
16 : 988.4 17 : 0.0 18 : 211.79999999999998 19 : 600.1 20 : 600.1 
21 : 211.79999999999998 22 : 600.1 23 : 211.79999999999998 24 : 105.89999999999999 
Origin 18 
1 : 35.3 2 : 0.0 3 : 0.0 4 : 35.3 5 : 0.0 
6 : 35.3 7 : 70.6 8 : 105.89999999999999 9 : 70.6 10 : 247.1 
11 : 70.6 12 : 70.6 13 : 35.3 14 : 35.3 15 : 70.6 
16 : 176.5 17 : 211.79999999999998 18 : 0.0 19 : 105.89999999999999 20 : 141.2 
21 : 35.3 22 : 105.89999999999999 23 : 35.3 24 : 0.0 
Origin 19 
1 : 220.05 2 : 73.35000000000001 3 : 0.0 4 : 146.70000000000002 5 : 73.35000000000001 
6 : 146.70000000000002 7 : 293.40000000000003 8 : 513.45 9 : 293.40000000000003 10 : 1320.3000000000002 
11 : 293.40000000000003 12 : 220.05 13 : 220.05 14 : 220.05 15 : 586.8000000000001 
16 : 953.5500000000001 17 : 1246.95 18 : 220.05 19 : 0.0 20 : 880.2 
21 : 293.40000000000003 22 : 880.2 23 : 220.05 24 : 73.35000000000001 
Origin 20 
1 : 220.05 2 : 73.35000000000001 3 : 0.0 4 : 220.05 5 : 73.35000000000001 
6 : 220.05 7 : 366.75 8 : 660.1500000000001 9 : 440.1 10 : 1833.75 
11 : 440.1 12 : 366.75 13 : 440.1 14 : 366.75 15 : 806.85 
16 : 1173.6000000000001 17 : 1246.95 18 : 293.40000000000003 19 : 880.2 20 : 0.0 
21 : 880.2 22 : 1760.4 23 : 513.45 24 : 293.40000000000003 
Origin 21 
1 : 73.35000000000001 2 : 0.0 3 : 0.0 4 : 146.70000000000002 5 : 73.35000000000001 
6 : 73.35000000000001 7 : 146.70000000000002 8 : 293.40000000000003 9 : 220.05 10 : 880.2 
11 : 293.40000000000003 12 : 220.05 13 : 440.1 14 : 293.40000000000003 15 : 586.8000000000001 
16 : 440.1 17 : 440.1 18 : 73.35000000000001 19 : 293.40000000000003 20 : 880.2 
21 : 0.0 22 : 1320.3000000000002 23 : 513.45 24 : 366.75 
Origin 22 
1 : 293.40000000000003 2 : 73.35000000000001 3 : 73.35000000000001 4 : 293.40000000000003 5 : 146.70000000000002 
6 : 146.70000000000002 7 : 366.75 8 : 366.75 9 : 513.45 10 : 1907.1000000000001 
11 : 806.85 12 : 513.45 13 : 953.5500000000001 14 : 880.2 15 : 1907.1000000000001 
16 : 880.2 17 : 1246.95 18 : 220.05 19 : 880.2 20 : 1760.4 
21 : 1320.3000000000002 22 : 0.0 23 : 1540.3500000000001 24 : 806.85 
Origin 23 
1 : 220.05 2 : 0.0 3 : 73.35000000000001 4 : 366.75 5 : 73.35000000000001 
6 : 73.35000000000001 7 : 146.70000000000002 8 : 220.05 9 : 366.75 10 : 1320.3000000000002 
11 : 953.5500000000001 12 : 513.45 13 : 586.8000000000001 14 : 806.85 15 : 733.5 
16 : 366.75 17 : 440.1 18 : 73.35000000000001 19 : 220.05 20 : 513.45 
21 : 513.45 22 : 1540.3500000000001 23 : 0.0 24 : 513.45 
Origin 24 
1 : 73.35000000000001 2 : 0.0 3 : 0.0 4 : 146.70000000000002 5 : 0.0 
6 : 73.35000000000001 7 : 73.35000000000001 8 : 146.70000000000002 9 : 146.70000000000002 10 : 586.8000000000001 
11 : 440.1 12 : 366.75 13 : 513.45 14 : 293.40000000000003 15 : 293.40000000000003 
16 : 220.05 17 : 220.05 18 : 0.0 19 : 73.35000000000001 20 : 293.40000000000003 
21 : 366.75 22 : 806.85 23 : 513.45 24 : 0.0 
