<NUMBER OF ZONES> 24
<TOTAL OD FLOW> 171781.34999999983
<TOLL FACTOR> 4.6222
<END OF METADATA>

Origin 1 
1 : 0.0 2 : 26.650000000000002 3 : 26.650000000000002 4 : 133.25 5 : 53.300000000000004 
6 : 79.95 7 : 133.25 8 : 213.20000000000002 9 : 133.25 10 : 346.45000000000005 
11 : 133.25 12 : 53.300000000000004 13 : 133.25 14 : 79.95 15 : 133.25 
16 : 133.25 17 : 106.60000000000001 18 : 26.650000000000002 19 : 79.95 20 : 79.95 
21 : 26.650000000000002 22 : 106.60000000000001 23 : 79.95 24 : 26.650000000000002 
Origin 2 
1 : 64.7 2 : 0.0 3 : 64.7 4 : 129.4 5 : 64.7 
6 : 258.8 7 : 129.4 8 : 258.8 9 : 129.4 10 : 388.2 
11 : 129.4 12 : 64.7 13 : 194.1 14 : 64.7 15 : 64.7 
16 : 258.8 17 : 129.4 18 : 0.0 19 : 64.7 20 : 64.7 
21 : 0.0 22 : 64.7 23 : 0.0 24 : 0.0 
Origin 3 
1 : 64.7 2 : 64.7 3 : 0.0 4 : 129.4 5 : 64.7 
6 : 194.1 7 : 64.7 8 : 129.4 9 : 64.7 10 : 194.1 
11 : 194.1 12 : 129.4 13 : 64.7 14 : 64.7 15 : 64.7 
16 : 129.4 17 : 64.7 18 : 0.0 19 : 0.0 20 : 0.0 
21 : 0.0 22 : 64.7 23 : 64.7 24 : 0.0 
Origin 4 
1 : 323.5 2 : 129.4 3 : 129.4 4 : 0.0 5 : 323.5 
6 : 258.8 7 : 258.8 8 : 452.90000000000003 9 : 452.90000000000003 10 : 776.4 
11 : 905.8000000000001 12 : 388.2 13 : 388.2 14 : 323.5 15 : 323.5 
16 : 517.6 17 : 323.5 18 : 64.7 19 : 129.4 20 : 194.1 
21 : 129.4 22 : 258.8 23 : 323.5 24 : 129.4 
Origin 5 
1 : 129.4 2 : 64.7 3 : 64.7 4 : 323.5 5 : 0.0 
6 : 129.4 7 : 129.4 8 : 323.5 9 : 517.6 10 : 647.0 
11 : 323.5 12 : 129.4 13 : 129.4 14 : 64.7 15 : 129.4 
16 : 323.5 17 : 129.4 18 : 0.0 19 : 64.7 20 : 64.7 
21 : 64.7 22 : 129.4 23 : 64.7 24 : 0.0 
Origin 6 
1 : 194.1 2 : 258.8 3 : 194.1 4 : 258.8 5 : 129.4 
6 : 0.0 7 : 258.8 8 : 517.6 9 : 258.8 10 : 517.6 
11 : 258.8 12 : 129.4 13 : 129.4 14 : 64.7 15 : 129.4 
16 : 582.3000000000001 17 : 323.5 18 : 64.7 19 : 129.4 20 : 194.1 
21 : 64.7 22 : 129.4 23 : 64.7 24 : 64.7 
Origin 7 
1 : 323.5 2 : 129.4 3 : 64.7 4 : 258.8 5 : 129.4 
6 : 258.8 7 : 0.0 8 : 647.0 9 : 388.2 10 : 1229.3 
11 : 323.5 12 : 452.90000000000003 13 : 258.8 14 : 129.4 15 : 323.5 
16 : 905.8000000000001 17 : 647.0 18 : 129.4 19 : 258.8 20 : 323.5 
21 : 129.4 22 : 323.5 23 : 129.4 24 : 64.7 
Origin 8 
1 : 517.6 2 : 258.8 3 : 129.4 4 : 452.90000000000003 5 : 323.5 
6 : 517.6 7 : 647.0 8 : 0.0 9 : 517.6 10 : 1035.2 
11 : 517.6 12 : 388.2 13 : 388.2 14 : 258.8 15 : 388.2 
16 : 1423.4 17 : 905.8000000000001 18 : 194.1 19 : 452.90000000000003 20 : 582.3000000000001 
21 : 258.8 22 : 323.5 23 : 194.1 24 : 129.4 
Origin 9 
1 : 323.5 2 : 129.4 3 : 64.7 4 : 452.90000000000003 5 : 517.6 
6 : 258.8 7 : 388.2 8 : 517.6 9 : 0.0 10 : 1811.6000000000001 
11 : 905.8000000000001 12 : 388.2 13 : 388.2 14 : 388.2 15 : 582.3000000000001 
16 : 905.8000000000001 17 : 582.3000000000001 18 : 129.4 19 : 258.8 20 : 388.2 
21 : 194.1 22 : 452.90000000000003 23 : 323.5 24 : 129.4 
Origin 10 
1 : 841.1 2 : 388.2 3 : 194.1 4 : 776.4 5 : 647.0 
6 : 517.6 7 : 1229.3 8 : 1035.2 9 : 1811.6000000000001 10 : 0.0 
11 : 2588.0 12 : 1294.0 13 : 1229.3 14 : 1358.7 15 : 2588.0 
16 : 2846.8 17 : 2523.3 18 : 452.90000000000003 19 : 1164.6000000000001 20 : 1617.5 
21 : 776.4 22 : 1682.2 23 : 1164.6000000000001 24 : 517.6 
Origin 11 
1 : 323.5 2 : 129.4 3 : 194.1 4 : 970.5 5 : 323.5 
6 : 258.8 7 : 323.5 8 : 517.6 9 : 905.8000000000001 10 : 2523.3 
11 : 0.0 12 : 905.8000000000001 13 : 647.0 14 : 1035.2 15 : 905.8000000000001 
16 : 905.8000000000001 17 : 647.0 18 : 64.7 19 : 258.8 20 : 388.2 
21 : 258.8 22 : 711.7 23 : 841.1 24 : 388.2 
Origin 12 
1 : 53.300000000000004 2 : 26.650000000000002 3 : 53.300000000000004 4 : 159.9 5 : 53.300000000000004 
6 : 53.300000000000004 7 : 186.55 8 : 159.9 9 : 159.9 10 : 533.0 
11 : 373.1 12 : 0.0 13 : 346.45000000000005 14 : 186.55 15 : 186.55 
16 : 186.55 17 : 159.9 18 : 53.300000000000004 19 : 79.95 20 : 106.60000000000001 
21 : 79.95 22 : 186.55 23 : 186.55 24 : 133.25 
Origin 13 
1 : 133.25 2 : 79.95 3 : 26.650000000000002 4 : 159.9 5 : 53.300000000000004 
6 : 53.300000000000004 7 : 106.60000000000001 8 : 159.9 9 : 159.9 10 : 506.35 
11 : 266.5 12 : 346.45000000000005 13 : 0.0 14 : 159.9 15 : 186.55 
16 : 159.9 17 : 133.25 18 : 26.650000000000002 19 : 79.95 20 : 159.9 
21 : 159.9 22 : 346.45000000000005 23 : 213.20000000000002 24 : 213.20000000000002 
Origin 14 
1 : 79.95 2 : 26.650000000000002 3 : 26.650000000000002 4 : 133.25 5 : 26.650000000000002 
6 : 26.650000000000002 7 : 53.300000000000004 8 : 106.60000000000001 9 : 159.9 10 : 559.65 
11 : 426.40000000000003 12 : 186.55 13 : 159.9 14 : 0.0 15 : 346.45000000000005 
16 : 186.55 17 : 186.55 18 : 26.650000000000002 19 : 79.95 20 : 133.25 
21 : 106.60000000000001 22 : 319.8 23 : 293.15000000000003 24 : 106.60000000000001 
Origin 15 
1 : 133.25 2 : 26.650000000000002 3 : 26.650000000000002 4 : 133.25 5 : 53.300000000000004 
6 : 53.300000000000004 7 : 133.25 8 : 159.9 9 : 266.5 10 : 1066.0 
11 : 373.1 12 : 186.55 13 : 186.55 14 : 346.45000000000005 15 : 0.0 
16 : 319.8 17 : 399.75 18 : 53.300000000000004 19 : 213.20000000000002 20 : 293.15000000000003 
21 : 213.20000000000002 22 : 692.9000000000001 23 : 266.5 24 : 106.60000000000001 
Origin 16 
1 : 323.5 2 : 258.8 3 : 129.4 4 : 517.6 5 : 323.5 
6 : 582.3000000000001 7 : 905.8000000000001 8 : 1423.4 9 : 905.8000000000001 10 : 2846.8 
11 : 905.8000000000001 12 : 452.90000000000003 13 : 388.2 14 : 452.90000000000003 15 : 776.4 
16 : 0.0 17 : 1811.6000000000001 18 : 323.5 19 : 841.1 20 : 1035.2 
21 : 388.2 22 : 776.4 23 : 323.5 24 : 194.1 
Origin 17 
1 : 258.8 2 : 129.4 3 : 64.7 4 : 323.5 5 : 129.4 
6 : 323.5 7 : 647.0 8 : 905.8000000000001 9 : 582.3000000000001 10 : 2523.3 
11 : 647.0 12 : 388.2 13 : 323.5 14 : 452.90000000000003 15 : 970.5 
16 : 1811.6000000000001 17 : 0.0 18 : 388.2 19 : 1099.9 20 : 1099.9 
21 : 388.2 22 : 1099.9 23 : 388.2 24 : 194.1 
Origin 18 
1 : 64.7 2 : 0.0 3 : 0.0 4 : 64.7 5 : 0.0 
6 : 64.7 7 : 129.4 8 : 194.1 9 : 129.4 10 : 452.90000000000003 
11 : 129.4 12 : 129.4 13 : 64.7 14 : 64.7 15 : 129.4 
16 : 323.5 17 : 388.2 18 : 0.0 19 : 194.1 20 : 258.8 
21 : 64.7 22 : 194.1 23 : 64.7 24 : 0.0 
Origin 19 
1 : 79.95 2 : 26.650000000000002 3 : 0.0 4 : 53.300000000000004 5 : 26.650000000000002 
6 : 53.300000000000004 7 : 106.60000000000001 8 : 186.55 9 : 106.60000000000001 10 : 479.70000000000005 
11 : 106.60000000000001 12 : 79.95 13 : 79.95 14 : 79.95 15 : 213.20000000000002 
16 : 346.45000000000005 17 : 453.05 18 : 79.95 19 : 0.0 20 : 319.8 
21 : 106.60000000000001 22 : 319.8 23 : 79.95 24 : 26.650000000000002 
Origin 20 
1 : 79.95 2 : 26.650000000000002 3 : 0.0 4 : 79.95 5 : 26.650000000000002 
6 : 79.95 7 : 133.25 8 : 239.85000000000002 9 : 159.9 10 : 666.25 
11 : 159.9 12 : 133.25 13 : 159.9 14 : 133.25 15 : 293.15000000000003 
16 : 426.40000000000003 17 : 453.05 18 : 106.60000000000001 19 : 319.8 20 : 0.0 
21 : 319.8 22 : 639.6 23 : 186.55 24 : 106.60000000000001 
Origin 21 
1 : 26.650000000000002 2 : 0.0 3 : 0.0 4 : 53.300000000000004 5 : 26.650000000000002 
6 : 26.650000000000002 7 : 53.300000000000004 8 : 106.60000000000001 9 : 79.95 10 : 319.8 
11 : 106.60000000000001 12 : 79.95 13 : 159.9 14 : 106.60000000000001 15 : 213.20000000000002 
16 : 159.9 17 : 159.9 18 : 26.650000000000002 19 : 106.60000000000001 20 : 319.8 
21 : 0.0 22 : 479.70000000000005 23 : 186.55 24 : 133.25 
Origin 22 
1 : 106.60000000000001 2 : 26.650000000000002 3 : 26.650000000000002 4 : 106.60000000000001 5 : 53.300000000000004 
6 : 53.300000000000004 7 : 133.25 8 : 133.25 9 : 186.55 10 : 692.9000000000001 
11 : 293.15000000000003 12 : 186.55 13 : 346.45000000000005 14 : 319.8 15 : 692.9000000000001 
16 : 319.8 17 : 453.05 18 : 79.95 19 : 319.8 20 : 639.6 
21 : 479.70000000000005 22 : 0.0 23 : 559.65 24 : 293.15000000000003 
Origin 23 
1 : 79.95 2 : 0.0 3 : 26.650000000000002 4 : 133.25 5 : 26.650000000000002 
6 : 26.650000000000002 7 : 53.300000000000004 8 : 79.95 9 : 133.25 10 : 479.70000000000005 
11 : 346.45000000000005 12 : 186.55 13 : 213.20000000000002 14 : 293.15000000000003 15 : 266.5 
16 : 133.25 17 : 159.9 18 : 26.650000000000002 19 : 79.95 20 : 186.55 
21 : 186.55 22 : 559.65 23 : 0.0 24 : 186.55 
Origin 24 
1 : 26.650000000000002 2 : 0.0 3 : 0.0 4 : 53.300000000000004 5 : 0.0 
6 : 26.650000000000002 7 : 26.650000000000002 8 : 53.300000000000004 9 : 53.300000000000004 10 : 213.20000000000002 
11 : 159.9 12 : 133.25 13 : 186.55 14 : 106.60000000000001 15 : 106.60000000000001 
16 : 79.95 17 : 79.95 18 : 0.0 19 : 26.650000000000002 20 : 106.60000000000001 
21 : 133.25 22 : 293.15000000000003 23 : 186.55 24 : 0.0 
